Circuit: * C:\Users\Guido\Documents\GitHub\ASSD\TP1\Ejercicio-2\spice\BP gyrator.asc

Early termination of direct N-R iteration.
Direct Newton iteration failed to find .op point.  (Use ".option noopiter" to skip.)
Starting Gmin stepping
Gmin = 10
vernier = 0.5
vernier = 0.25
vernier = 0.125
Gmin = 5.5165
vernier = 0.0625
vernier = 0.03125
vernier = 0.015625
vernier = 0.0078125
Gmin = 5.48432
vernier = 0.00390625
vernier = 0.00195313
vernier = 0.000976563
vernier = 0.000488281
Gmin = 0
Gmin stepping failed

Starting source stepping with srcstepmethod=0
Source Step = 3.0303%
Source Step = 33.3333%
Source Step = 63.6364%
Source Step = 93.9394%
Source stepping succeeded in finding the operating point.

.step run=1
.step run=2

Date: Fri Apr 03 14:44:05 2020
Total elapsed time: 1.813 seconds.

tnom = 27
temp = 27
method = trap
totiter = 1660
traniter = 0
tranpoints = 0
accept = 0
rejected = 0
matrix size = 126
fillins = 1481
solver = Normal
Matrix Compiler1:   10860 opcodes
Matrix Compiler2: 37.45 KB object code size  6.7/6.5/[3.1]

