Circuit: * C:\Users\Guido\Documents\GitHub\ASSD\TP1\Ejercicio-2\spice\porongol.asc

Direct Newton iteration failed to find .op point.  (Use ".option noopiter" to skip.)
Starting Gmin stepping
Gmin = 10
vernier = 0.5
vernier = 0.25
vernier = 0.125
Gmin = 5.5165
vernier = 0.0625
vernier = 0.03125
vernier = 0.015625
vernier = 0.0078125
Gmin = 5.48432
vernier = 0.00390625
vernier = 0.00195313
vernier = 0.000976563
vernier = 0.000488281
Gmin = 0
Gmin stepping failed

Starting source stepping with srcstepmethod=0
Source Step = 3.0303%
Source Step = 33.3333%
Source Step = 63.6364%
Source Step = 93.9394%
Source stepping succeeded in finding the operating point.


Date: Fri Mar 20 14:32:16 2020
Total elapsed time: 0.111 seconds.

tnom = 27
temp = 27
method = trap
totiter = 1687
traniter = 0
tranpoints = 0
accept = 0
rejected = 0
matrix size = 30
fillins = 52
solver = Normal
Matrix Compiler1:     205 opcodes
Matrix Compiler2: off  [0.5]/0.8/1.0

