Circuit: * C:\Users\Acer\Desktop\GitHub\ASSD\TP1\Ejercicio-1\Spice\Draft1.asc

Direct Newton iteration for .op point succeeded.

Date: Sat Mar 21 12:34:55 2020
Total elapsed time: 0.060 seconds.

tnom = 27
temp = 27
method = modified trap
totiter = 2096
traniter = 2086
tranpoints = 1042
accept = 1042
rejected = 0
matrix size = 10
fillins = 0
solver = Normal
Matrix Compiler1: 274 bytes object code size  0.1/0.1/[0.0]
Matrix Compiler2: off  [0.0]/0.1/0.1

