Circuit: * C:\Users\Acer\Desktop\GitHub\ASSD\TP1\Ejercicio-1\Spice\Oscilador.asc

WARNING: Less than two connections to node +VCC.  This node is used by V2.
WARNING: Less than two connections to node -VCC.  This node is used by V3.
Direct Newton iteration for .op point succeeded.

Date: Sat Mar 21 22:38:50 2020
Total elapsed time: 0.074 seconds.

tnom = 27
temp = 27
method = modified trap
totiter = 5230
traniter = 5216
tranpoints = 1793
accept = 1600
rejected = 193
matrix size = 24
fillins = 6
solver = Normal
Matrix Compiler1: 1.02 KB object code size  0.2/0.1/[0.1]
Matrix Compiler2: off  [0.1]/0.2/0.2

