Circuit: * C:\Users\Guido\Documents\GitHub\ASSD\TP1\Ejercicio-6\Spice\FAA+LL+FR.asc

WARNING: Less than two connections to node N003.  This node is used by V5.
WARNING: Less than two connections to node N001.  This node is used by V7.
Per .tran options, skipping operating point for transient analysis.
.step amp=1 freqs=20000 dts=5
.step amp=1.5 freqs=20000 dts=5
.step amp=2 freqs=20000 dts=5
.step amp=2.5 freqs=20000 dts=5
.step amp=3 freqs=20000 dts=5
.step amp=3.5 freqs=20000 dts=5
.step amp=4 freqs=20000 dts=5
.step amp=4.5 freqs=20000 dts=5
.step amp=5 freqs=20000 dts=5
.step amp=1 freqs=20250 dts=5
.step amp=1.5 freqs=20250 dts=5
.step amp=2 freqs=20250 dts=5
.step amp=2.5 freqs=20250 dts=5
.step amp=3 freqs=20250 dts=5
.step amp=3.5 freqs=20250 dts=5
.step amp=4 freqs=20250 dts=5
.step amp=4.5 freqs=20250 dts=5
.step amp=5 freqs=20250 dts=5
.step amp=1 freqs=20500 dts=5
.step amp=1.5 freqs=20500 dts=5
.step amp=2 freqs=20500 dts=5
.step amp=2.5 freqs=20500 dts=5
.step amp=3 freqs=20500 dts=5
.step amp=3.5 freqs=20500 dts=5
.step amp=4 freqs=20500 dts=5
.step amp=4.5 freqs=20500 dts=5
.step amp=5 freqs=20500 dts=5
.step amp=1 freqs=20750 dts=5
.step amp=1.5 freqs=20750 dts=5
.step amp=2 freqs=20750 dts=5
.step amp=2.5 freqs=20750 dts=5
.step amp=3 freqs=20750 dts=5
.step amp=3.5 freqs=20750 dts=5
.step amp=4 freqs=20750 dts=5
.step amp=4.5 freqs=20750 dts=5
.step amp=5 freqs=20750 dts=5
.step amp=1 freqs=21000 dts=5
.step amp=1.5 freqs=21000 dts=5
.step amp=2 freqs=21000 dts=5
.step amp=2.5 freqs=21000 dts=5
.step amp=3 freqs=21000 dts=5
.step amp=3.5 freqs=21000 dts=5
.step amp=4 freqs=21000 dts=5
.step amp=4.5 freqs=21000 dts=5
.step amp=5 freqs=21000 dts=5
.step amp=1 freqs=21250 dts=5
.step amp=1.5 freqs=21250 dts=5
.step amp=2 freqs=21250 dts=5
.step amp=2.5 freqs=21250 dts=5
.step amp=3 freqs=21250 dts=5
.step amp=3.5 freqs=21250 dts=5
.step amp=4 freqs=21250 dts=5
.step amp=4.5 freqs=21250 dts=5
.step amp=5 freqs=21250 dts=5
.step amp=1 freqs=21500 dts=5
.step amp=1.5 freqs=21500 dts=5
.step amp=2 freqs=21500 dts=5
.step amp=2.5 freqs=21500 dts=5
.step amp=3 freqs=21500 dts=5
.step amp=3.5 freqs=21500 dts=5
.step amp=4 freqs=21500 dts=5
.step amp=4.5 freqs=21500 dts=5
.step amp=5 freqs=21500 dts=5
.step amp=1 freqs=21750 dts=5
.step amp=1.5 freqs=21750 dts=5
.step amp=2 freqs=21750 dts=5
.step amp=2.5 freqs=21750 dts=5
.step amp=3 freqs=21750 dts=5
.step amp=3.5 freqs=21750 dts=5
.step amp=4 freqs=21750 dts=5
.step amp=4.5 freqs=21750 dts=5
.step amp=5 freqs=21750 dts=5
.step amp=1 freqs=22000 dts=5
.step amp=1.5 freqs=22000 dts=5
.step amp=2 freqs=22000 dts=5
.step amp=2.5 freqs=22000 dts=5
.step amp=3 freqs=22000 dts=5
.step amp=3.5 freqs=22000 dts=5
.step amp=4 freqs=22000 dts=5
.step amp=4.5 freqs=22000 dts=5
.step amp=5 freqs=22000 dts=5
.step amp=1 freqs=22250 dts=5
.step amp=1.5 freqs=22250 dts=5
.step amp=2 freqs=22250 dts=5
.step amp=2.5 freqs=22250 dts=5
.step amp=3 freqs=22250 dts=5
.step amp=3.5 freqs=22250 dts=5
.step amp=4 freqs=22250 dts=5
.step amp=4.5 freqs=22250 dts=5
.step amp=5 freqs=22250 dts=5
.step amp=1 freqs=22500 dts=5
.step amp=1.5 freqs=22500 dts=5
.step amp=2 freqs=22500 dts=5
.step amp=2.5 freqs=22500 dts=5
.step amp=3 freqs=22500 dts=5
.step amp=3.5 freqs=22500 dts=5
.step amp=4 freqs=22500 dts=5
.step amp=4.5 freqs=22500 dts=5
.step amp=5 freqs=22500 dts=5
.step amp=1 freqs=22750 dts=5
.step amp=1.5 freqs=22750 dts=5
.step amp=2 freqs=22750 dts=5
.step amp=2.5 freqs=22750 dts=5
.step amp=3 freqs=22750 dts=5
.step amp=3.5 freqs=22750 dts=5
.step amp=4 freqs=22750 dts=5
.step amp=4.5 freqs=22750 dts=5
.step amp=5 freqs=22750 dts=5
.step amp=1 freqs=23000 dts=5
.step amp=1.5 freqs=23000 dts=5
.step amp=2 freqs=23000 dts=5
.step amp=2.5 freqs=23000 dts=5
.step amp=3 freqs=23000 dts=5
.step amp=3.5 freqs=23000 dts=5
.step amp=4 freqs=23000 dts=5
.step amp=4.5 freqs=23000 dts=5
.step amp=5 freqs=23000 dts=5
.step amp=1 freqs=23250 dts=5
.step amp=1.5 freqs=23250 dts=5
.step amp=2 freqs=23250 dts=5
.step amp=2.5 freqs=23250 dts=5
.step amp=3 freqs=23250 dts=5
.step amp=3.5 freqs=23250 dts=5
.step amp=4 freqs=23250 dts=5
.step amp=4.5 freqs=23250 dts=5
.step amp=5 freqs=23250 dts=5
.step amp=1 freqs=23500 dts=5
.step amp=1.5 freqs=23500 dts=5
.step amp=2 freqs=23500 dts=5
.step amp=2.5 freqs=23500 dts=5
.step amp=3 freqs=23500 dts=5
.step amp=3.5 freqs=23500 dts=5
.step amp=4 freqs=23500 dts=5
.step amp=4.5 freqs=23500 dts=5
.step amp=5 freqs=23500 dts=5
.step amp=1 freqs=23750 dts=5
.step amp=1.5 freqs=23750 dts=5
.step amp=2 freqs=23750 dts=5
.step amp=2.5 freqs=23750 dts=5
.step amp=3 freqs=23750 dts=5
.step amp=3.5 freqs=23750 dts=5
.step amp=4 freqs=23750 dts=5
.step amp=4.5 freqs=23750 dts=5
.step amp=5 freqs=23750 dts=5
.step amp=1 freqs=24000 dts=5
.step amp=1.5 freqs=24000 dts=5
.step amp=2 freqs=24000 dts=5
.step amp=2.5 freqs=24000 dts=5
.step amp=3 freqs=24000 dts=5
.step amp=3.5 freqs=24000 dts=5
.step amp=4 freqs=24000 dts=5
.step amp=4.5 freqs=24000 dts=5
.step amp=5 freqs=24000 dts=5
.step amp=1 freqs=24250 dts=5
.step amp=1.5 freqs=24250 dts=5
.step amp=2 freqs=24250 dts=5
.step amp=2.5 freqs=24250 dts=5
.step amp=3 freqs=24250 dts=5
.step amp=3.5 freqs=24250 dts=5
.step amp=4 freqs=24250 dts=5
.step amp=4.5 freqs=24250 dts=5
.step amp=5 freqs=24250 dts=5
.step amp=1 freqs=24500 dts=5
.step amp=1.5 freqs=24500 dts=5
.step amp=2 freqs=24500 dts=5
.step amp=2.5 freqs=24500 dts=5
.step amp=3 freqs=24500 dts=5
.step amp=3.5 freqs=24500 dts=5
.step amp=4 freqs=24500 dts=5
.step amp=4.5 freqs=24500 dts=5
.step amp=5 freqs=24500 dts=5
.step amp=1 freqs=24750 dts=5
.step amp=1.5 freqs=24750 dts=5
.step amp=2 freqs=24750 dts=5
.step amp=2.5 freqs=24750 dts=5
.step amp=3 freqs=24750 dts=5
.step amp=3.5 freqs=24750 dts=5
.step amp=4 freqs=24750 dts=5
.step amp=4.5 freqs=24750 dts=5
.step amp=5 freqs=24750 dts=5
.step amp=1 freqs=25000 dts=5
.step amp=1.5 freqs=25000 dts=5
.step amp=2 freqs=25000 dts=5
.step amp=2.5 freqs=25000 dts=5
.step amp=3 freqs=25000 dts=5
.step amp=3.5 freqs=25000 dts=5
.step amp=4 freqs=25000 dts=5
.step amp=4.5 freqs=25000 dts=5
.step amp=5 freqs=25000 dts=5
.step amp=1 freqs=20000 dts=10
.step amp=1.5 freqs=20000 dts=10
.step amp=2 freqs=20000 dts=10
.step amp=2.5 freqs=20000 dts=10
.step amp=3 freqs=20000 dts=10
.step amp=3.5 freqs=20000 dts=10
.step amp=4 freqs=20000 dts=10
.step amp=4.5 freqs=20000 dts=10
.step amp=5 freqs=20000 dts=10
.step amp=1 freqs=20250 dts=10
.step amp=1.5 freqs=20250 dts=10
.step amp=2 freqs=20250 dts=10
.step amp=2.5 freqs=20250 dts=10
.step amp=3 freqs=20250 dts=10
.step amp=3.5 freqs=20250 dts=10
.step amp=4 freqs=20250 dts=10
.step amp=4.5 freqs=20250 dts=10
.step amp=5 freqs=20250 dts=10
.step amp=1 freqs=20500 dts=10
.step amp=1.5 freqs=20500 dts=10
.step amp=2 freqs=20500 dts=10
.step amp=2.5 freqs=20500 dts=10
.step amp=3 freqs=20500 dts=10
.step amp=3.5 freqs=20500 dts=10
.step amp=4 freqs=20500 dts=10
.step amp=4.5 freqs=20500 dts=10
.step amp=5 freqs=20500 dts=10
.step amp=1 freqs=20750 dts=10
.step amp=1.5 freqs=20750 dts=10
.step amp=2 freqs=20750 dts=10
.step amp=2.5 freqs=20750 dts=10
.step amp=3 freqs=20750 dts=10
.step amp=3.5 freqs=20750 dts=10
.step amp=4 freqs=20750 dts=10
.step amp=4.5 freqs=20750 dts=10
.step amp=5 freqs=20750 dts=10
.step amp=1 freqs=21000 dts=10
.step amp=1.5 freqs=21000 dts=10
.step amp=2 freqs=21000 dts=10
.step amp=2.5 freqs=21000 dts=10
.step amp=3 freqs=21000 dts=10
.step amp=3.5 freqs=21000 dts=10
.step amp=4 freqs=21000 dts=10
.step amp=4.5 freqs=21000 dts=10
.step amp=5 freqs=21000 dts=10
.step amp=1 freqs=21250 dts=10
.step amp=1.5 freqs=21250 dts=10
.step amp=2 freqs=21250 dts=10
.step amp=2.5 freqs=21250 dts=10
.step amp=3 freqs=21250 dts=10
.step amp=3.5 freqs=21250 dts=10
.step amp=4 freqs=21250 dts=10
.step amp=4.5 freqs=21250 dts=10
.step amp=5 freqs=21250 dts=10
.step amp=1 freqs=21500 dts=10
.step amp=1.5 freqs=21500 dts=10
.step amp=2 freqs=21500 dts=10
.step amp=2.5 freqs=21500 dts=10
.step amp=3 freqs=21500 dts=10
.step amp=3.5 freqs=21500 dts=10
.step amp=4 freqs=21500 dts=10
.step amp=4.5 freqs=21500 dts=10
.step amp=5 freqs=21500 dts=10
.step amp=1 freqs=21750 dts=10
.step amp=1.5 freqs=21750 dts=10
.step amp=2 freqs=21750 dts=10
.step amp=2.5 freqs=21750 dts=10
.step amp=3 freqs=21750 dts=10
.step amp=3.5 freqs=21750 dts=10
.step amp=4 freqs=21750 dts=10
.step amp=4.5 freqs=21750 dts=10
.step amp=5 freqs=21750 dts=10
.step amp=1 freqs=22000 dts=10
.step amp=1.5 freqs=22000 dts=10
.step amp=2 freqs=22000 dts=10
.step amp=2.5 freqs=22000 dts=10
.step amp=3 freqs=22000 dts=10
.step amp=3.5 freqs=22000 dts=10
.step amp=4 freqs=22000 dts=10
.step amp=4.5 freqs=22000 dts=10
.step amp=5 freqs=22000 dts=10
.step amp=1 freqs=22250 dts=10
.step amp=1.5 freqs=22250 dts=10
.step amp=2 freqs=22250 dts=10
.step amp=2.5 freqs=22250 dts=10
.step amp=3 freqs=22250 dts=10
.step amp=3.5 freqs=22250 dts=10
.step amp=4 freqs=22250 dts=10
.step amp=4.5 freqs=22250 dts=10
.step amp=5 freqs=22250 dts=10
.step amp=1 freqs=22500 dts=10
.step amp=1.5 freqs=22500 dts=10
.step amp=2 freqs=22500 dts=10
.step amp=2.5 freqs=22500 dts=10
.step amp=3 freqs=22500 dts=10
.step amp=3.5 freqs=22500 dts=10
.step amp=4 freqs=22500 dts=10
.step amp=4.5 freqs=22500 dts=10
.step amp=5 freqs=22500 dts=10
.step amp=1 freqs=22750 dts=10
.step amp=1.5 freqs=22750 dts=10
.step amp=2 freqs=22750 dts=10
.step amp=2.5 freqs=22750 dts=10
.step amp=3 freqs=22750 dts=10
.step amp=3.5 freqs=22750 dts=10
.step amp=4 freqs=22750 dts=10
.step amp=4.5 freqs=22750 dts=10
.step amp=5 freqs=22750 dts=10
.step amp=1 freqs=23000 dts=10
.step amp=1.5 freqs=23000 dts=10
.step amp=2 freqs=23000 dts=10
.step amp=2.5 freqs=23000 dts=10
.step amp=3 freqs=23000 dts=10
.step amp=3.5 freqs=23000 dts=10
.step amp=4 freqs=23000 dts=10
.step amp=4.5 freqs=23000 dts=10
.step amp=5 freqs=23000 dts=10
.step amp=1 freqs=23250 dts=10
.step amp=1.5 freqs=23250 dts=10
.step amp=2 freqs=23250 dts=10
.step amp=2.5 freqs=23250 dts=10
.step amp=3 freqs=23250 dts=10
.step amp=3.5 freqs=23250 dts=10
.step amp=4 freqs=23250 dts=10
.step amp=4.5 freqs=23250 dts=10
.step amp=5 freqs=23250 dts=10
.step amp=1 freqs=23500 dts=10
.step amp=1.5 freqs=23500 dts=10
.step amp=2 freqs=23500 dts=10
.step amp=2.5 freqs=23500 dts=10
.step amp=3 freqs=23500 dts=10
.step amp=3.5 freqs=23500 dts=10
.step amp=4 freqs=23500 dts=10
.step amp=4.5 freqs=23500 dts=10
.step amp=5 freqs=23500 dts=10
.step amp=1 freqs=23750 dts=10
.step amp=1.5 freqs=23750 dts=10
.step amp=2 freqs=23750 dts=10
.step amp=2.5 freqs=23750 dts=10
.step amp=3 freqs=23750 dts=10
.step amp=3.5 freqs=23750 dts=10
.step amp=4 freqs=23750 dts=10
.step amp=4.5 freqs=23750 dts=10
.step amp=5 freqs=23750 dts=10
.step amp=1 freqs=24000 dts=10
.step amp=1.5 freqs=24000 dts=10
.step amp=2 freqs=24000 dts=10
.step amp=2.5 freqs=24000 dts=10
.step amp=3 freqs=24000 dts=10
.step amp=3.5 freqs=24000 dts=10
.step amp=4 freqs=24000 dts=10
.step amp=4.5 freqs=24000 dts=10
.step amp=5 freqs=24000 dts=10
.step amp=1 freqs=24250 dts=10
.step amp=1.5 freqs=24250 dts=10
.step amp=2 freqs=24250 dts=10
.step amp=2.5 freqs=24250 dts=10
.step amp=3 freqs=24250 dts=10
.step amp=3.5 freqs=24250 dts=10
.step amp=4 freqs=24250 dts=10
.step amp=4.5 freqs=24250 dts=10
.step amp=5 freqs=24250 dts=10
.step amp=1 freqs=24500 dts=10
.step amp=1.5 freqs=24500 dts=10
.step amp=2 freqs=24500 dts=10
.step amp=2.5 freqs=24500 dts=10
.step amp=3 freqs=24500 dts=10
.step amp=3.5 freqs=24500 dts=10
.step amp=4 freqs=24500 dts=10
.step amp=4.5 freqs=24500 dts=10
.step amp=5 freqs=24500 dts=10
.step amp=1 freqs=24750 dts=10
.step amp=1.5 freqs=24750 dts=10
.step amp=2 freqs=24750 dts=10
.step amp=2.5 freqs=24750 dts=10
.step amp=3 freqs=24750 dts=10
.step amp=3.5 freqs=24750 dts=10
.step amp=4 freqs=24750 dts=10
.step amp=4.5 freqs=24750 dts=10
.step amp=5 freqs=24750 dts=10
.step amp=1 freqs=25000 dts=10
.step amp=1.5 freqs=25000 dts=10
.step amp=2 freqs=25000 dts=10
.step amp=2.5 freqs=25000 dts=10
.step amp=3 freqs=25000 dts=10
.step amp=3.5 freqs=25000 dts=10
.step amp=4 freqs=25000 dts=10
.step amp=4.5 freqs=25000 dts=10
.step amp=5 freqs=25000 dts=10
.step amp=1 freqs=20000 dts=15
.step amp=1.5 freqs=20000 dts=15
.step amp=2 freqs=20000 dts=15
.step amp=2.5 freqs=20000 dts=15
.step amp=3 freqs=20000 dts=15
.step amp=3.5 freqs=20000 dts=15
.step amp=4 freqs=20000 dts=15
.step amp=4.5 freqs=20000 dts=15
.step amp=5 freqs=20000 dts=15
.step amp=1 freqs=20250 dts=15
.step amp=1.5 freqs=20250 dts=15
.step amp=2 freqs=20250 dts=15
.step amp=2.5 freqs=20250 dts=15
.step amp=3 freqs=20250 dts=15
.step amp=3.5 freqs=20250 dts=15
.step amp=4 freqs=20250 dts=15
.step amp=4.5 freqs=20250 dts=15
.step amp=5 freqs=20250 dts=15
.step amp=1 freqs=20500 dts=15
.step amp=1.5 freqs=20500 dts=15
.step amp=2 freqs=20500 dts=15
.step amp=2.5 freqs=20500 dts=15
.step amp=3 freqs=20500 dts=15
.step amp=3.5 freqs=20500 dts=15
.step amp=4 freqs=20500 dts=15
.step amp=4.5 freqs=20500 dts=15
.step amp=5 freqs=20500 dts=15
.step amp=1 freqs=20750 dts=15
.step amp=1.5 freqs=20750 dts=15
.step amp=2 freqs=20750 dts=15
.step amp=2.5 freqs=20750 dts=15
.step amp=3 freqs=20750 dts=15
.step amp=3.5 freqs=20750 dts=15
.step amp=4 freqs=20750 dts=15
.step amp=4.5 freqs=20750 dts=15
.step amp=5 freqs=20750 dts=15
.step amp=1 freqs=21000 dts=15
.step amp=1.5 freqs=21000 dts=15
.step amp=2 freqs=21000 dts=15
.step amp=2.5 freqs=21000 dts=15
.step amp=3 freqs=21000 dts=15
.step amp=3.5 freqs=21000 dts=15
.step amp=4 freqs=21000 dts=15
.step amp=4.5 freqs=21000 dts=15
.step amp=5 freqs=21000 dts=15
.step amp=1 freqs=21250 dts=15
.step amp=1.5 freqs=21250 dts=15
.step amp=2 freqs=21250 dts=15
.step amp=2.5 freqs=21250 dts=15
.step amp=3 freqs=21250 dts=15
.step amp=3.5 freqs=21250 dts=15
.step amp=4 freqs=21250 dts=15
.step amp=4.5 freqs=21250 dts=15
.step amp=5 freqs=21250 dts=15
.step amp=1 freqs=21500 dts=15
.step amp=1.5 freqs=21500 dts=15
.step amp=2 freqs=21500 dts=15
.step amp=2.5 freqs=21500 dts=15
.step amp=3 freqs=21500 dts=15
.step amp=3.5 freqs=21500 dts=15
.step amp=4 freqs=21500 dts=15
.step amp=4.5 freqs=21500 dts=15
.step amp=5 freqs=21500 dts=15
.step amp=1 freqs=21750 dts=15
.step amp=1.5 freqs=21750 dts=15
.step amp=2 freqs=21750 dts=15
.step amp=2.5 freqs=21750 dts=15
.step amp=3 freqs=21750 dts=15
.step amp=3.5 freqs=21750 dts=15
.step amp=4 freqs=21750 dts=15
.step amp=4.5 freqs=21750 dts=15
.step amp=5 freqs=21750 dts=15
.step amp=1 freqs=22000 dts=15
.step amp=1.5 freqs=22000 dts=15
.step amp=2 freqs=22000 dts=15
.step amp=2.5 freqs=22000 dts=15
.step amp=3 freqs=22000 dts=15
.step amp=3.5 freqs=22000 dts=15
.step amp=4 freqs=22000 dts=15
.step amp=4.5 freqs=22000 dts=15
.step amp=5 freqs=22000 dts=15
.step amp=1 freqs=22250 dts=15
.step amp=1.5 freqs=22250 dts=15
.step amp=2 freqs=22250 dts=15
.step amp=2.5 freqs=22250 dts=15
.step amp=3 freqs=22250 dts=15
.step amp=3.5 freqs=22250 dts=15
.step amp=4 freqs=22250 dts=15
.step amp=4.5 freqs=22250 dts=15
.step amp=5 freqs=22250 dts=15
.step amp=1 freqs=22500 dts=15
.step amp=1.5 freqs=22500 dts=15
.step amp=2 freqs=22500 dts=15
.step amp=2.5 freqs=22500 dts=15
.step amp=3 freqs=22500 dts=15
.step amp=3.5 freqs=22500 dts=15
.step amp=4 freqs=22500 dts=15
.step amp=4.5 freqs=22500 dts=15
.step amp=5 freqs=22500 dts=15
.step amp=1 freqs=22750 dts=15
.step amp=1.5 freqs=22750 dts=15
.step amp=2 freqs=22750 dts=15
.step amp=2.5 freqs=22750 dts=15
.step amp=3 freqs=22750 dts=15
.step amp=3.5 freqs=22750 dts=15
.step amp=4 freqs=22750 dts=15
.step amp=4.5 freqs=22750 dts=15
.step amp=5 freqs=22750 dts=15
.step amp=1 freqs=23000 dts=15
.step amp=1.5 freqs=23000 dts=15
.step amp=2 freqs=23000 dts=15
.step amp=2.5 freqs=23000 dts=15
.step amp=3 freqs=23000 dts=15
.step amp=3.5 freqs=23000 dts=15
.step amp=4 freqs=23000 dts=15
.step amp=4.5 freqs=23000 dts=15
.step amp=5 freqs=23000 dts=15
.step amp=1 freqs=23250 dts=15
.step amp=1.5 freqs=23250 dts=15
.step amp=2 freqs=23250 dts=15
.step amp=2.5 freqs=23250 dts=15
.step amp=3 freqs=23250 dts=15
.step amp=3.5 freqs=23250 dts=15
.step amp=4 freqs=23250 dts=15
.step amp=4.5 freqs=23250 dts=15
.step amp=5 freqs=23250 dts=15
.step amp=1 freqs=23500 dts=15
.step amp=1.5 freqs=23500 dts=15
.step amp=2 freqs=23500 dts=15
.step amp=2.5 freqs=23500 dts=15
.step amp=3 freqs=23500 dts=15
.step amp=3.5 freqs=23500 dts=15
.step amp=4 freqs=23500 dts=15
.step amp=4.5 freqs=23500 dts=15
.step amp=5 freqs=23500 dts=15
.step amp=1 freqs=23750 dts=15
.step amp=1.5 freqs=23750 dts=15
.step amp=2 freqs=23750 dts=15
.step amp=2.5 freqs=23750 dts=15
.step amp=3 freqs=23750 dts=15
.step amp=3.5 freqs=23750 dts=15
.step amp=4 freqs=23750 dts=15
.step amp=4.5 freqs=23750 dts=15
.step amp=5 freqs=23750 dts=15
.step amp=1 freqs=24000 dts=15
.step amp=1.5 freqs=24000 dts=15
.step amp=2 freqs=24000 dts=15
.step amp=2.5 freqs=24000 dts=15
.step amp=3 freqs=24000 dts=15
.step amp=3.5 freqs=24000 dts=15
.step amp=4 freqs=24000 dts=15
.step amp=4.5 freqs=24000 dts=15
.step amp=5 freqs=24000 dts=15
.step amp=1 freqs=24250 dts=15
.step amp=1.5 freqs=24250 dts=15
.step amp=2 freqs=24250 dts=15
.step amp=2.5 freqs=24250 dts=15
.step amp=3 freqs=24250 dts=15
.step amp=3.5 freqs=24250 dts=15
.step amp=4 freqs=24250 dts=15
.step amp=4.5 freqs=24250 dts=15
.step amp=5 freqs=24250 dts=15
.step amp=1 freqs=24500 dts=15
.step amp=1.5 freqs=24500 dts=15
.step amp=2 freqs=24500 dts=15
.step amp=2.5 freqs=24500 dts=15
.step amp=3 freqs=24500 dts=15
.step amp=3.5 freqs=24500 dts=15
.step amp=4 freqs=24500 dts=15
.step amp=4.5 freqs=24500 dts=15
.step amp=5 freqs=24500 dts=15
.step amp=1 freqs=24750 dts=15
.step amp=1.5 freqs=24750 dts=15
.step amp=2 freqs=24750 dts=15
.step amp=2.5 freqs=24750 dts=15
.step amp=3 freqs=24750 dts=15
.step amp=3.5 freqs=24750 dts=15
.step amp=4 freqs=24750 dts=15
.step amp=4.5 freqs=24750 dts=15
.step amp=5 freqs=24750 dts=15
.step amp=1 freqs=25000 dts=15
.step amp=1.5 freqs=25000 dts=15
.step amp=2 freqs=25000 dts=15
.step amp=2.5 freqs=25000 dts=15
.step amp=3 freqs=25000 dts=15
.step amp=3.5 freqs=25000 dts=15
.step amp=4 freqs=25000 dts=15
.step amp=4.5 freqs=25000 dts=15
.step amp=5 freqs=25000 dts=15
.step amp=1 freqs=20000 dts=20
.step amp=1.5 freqs=20000 dts=20
.step amp=2 freqs=20000 dts=20
.step amp=2.5 freqs=20000 dts=20
.step amp=3 freqs=20000 dts=20
.step amp=3.5 freqs=20000 dts=20
.step amp=4 freqs=20000 dts=20
.step amp=4.5 freqs=20000 dts=20
.step amp=5 freqs=20000 dts=20
.step amp=1 freqs=20250 dts=20
.step amp=1.5 freqs=20250 dts=20
.step amp=2 freqs=20250 dts=20
.step amp=2.5 freqs=20250 dts=20
.step amp=3 freqs=20250 dts=20
.step amp=3.5 freqs=20250 dts=20
.step amp=4 freqs=20250 dts=20
.step amp=4.5 freqs=20250 dts=20
.step amp=5 freqs=20250 dts=20
.step amp=1 freqs=20500 dts=20
.step amp=1.5 freqs=20500 dts=20
.step amp=2 freqs=20500 dts=20
.step amp=2.5 freqs=20500 dts=20
.step amp=3 freqs=20500 dts=20
.step amp=3.5 freqs=20500 dts=20
.step amp=4 freqs=20500 dts=20
.step amp=4.5 freqs=20500 dts=20
.step amp=5 freqs=20500 dts=20
.step amp=1 freqs=20750 dts=20
.step amp=1.5 freqs=20750 dts=20
.step amp=2 freqs=20750 dts=20
.step amp=2.5 freqs=20750 dts=20
.step amp=3 freqs=20750 dts=20
.step amp=3.5 freqs=20750 dts=20
.step amp=4 freqs=20750 dts=20
.step amp=4.5 freqs=20750 dts=20
.step amp=5 freqs=20750 dts=20
.step amp=1 freqs=21000 dts=20
.step amp=1.5 freqs=21000 dts=20
.step amp=2 freqs=21000 dts=20
.step amp=2.5 freqs=21000 dts=20
.step amp=3 freqs=21000 dts=20
.step amp=3.5 freqs=21000 dts=20
.step amp=4 freqs=21000 dts=20
.step amp=4.5 freqs=21000 dts=20
.step amp=5 freqs=21000 dts=20
.step amp=1 freqs=21250 dts=20
.step amp=1.5 freqs=21250 dts=20
.step amp=2 freqs=21250 dts=20
.step amp=2.5 freqs=21250 dts=20
.step amp=3 freqs=21250 dts=20
.step amp=3.5 freqs=21250 dts=20
.step amp=4 freqs=21250 dts=20
.step amp=4.5 freqs=21250 dts=20
.step amp=5 freqs=21250 dts=20
.step amp=1 freqs=21500 dts=20
.step amp=1.5 freqs=21500 dts=20
.step amp=2 freqs=21500 dts=20
.step amp=2.5 freqs=21500 dts=20
.step amp=3 freqs=21500 dts=20
.step amp=3.5 freqs=21500 dts=20
.step amp=4 freqs=21500 dts=20
.step amp=4.5 freqs=21500 dts=20
.step amp=5 freqs=21500 dts=20
.step amp=1 freqs=21750 dts=20
.step amp=1.5 freqs=21750 dts=20
.step amp=2 freqs=21750 dts=20
.step amp=2.5 freqs=21750 dts=20
.step amp=3 freqs=21750 dts=20
.step amp=3.5 freqs=21750 dts=20
.step amp=4 freqs=21750 dts=20
.step amp=4.5 freqs=21750 dts=20
.step amp=5 freqs=21750 dts=20
.step amp=1 freqs=22000 dts=20
.step amp=1.5 freqs=22000 dts=20
.step amp=2 freqs=22000 dts=20
.step amp=2.5 freqs=22000 dts=20
.step amp=3 freqs=22000 dts=20
.step amp=3.5 freqs=22000 dts=20
.step amp=4 freqs=22000 dts=20
.step amp=4.5 freqs=22000 dts=20
.step amp=5 freqs=22000 dts=20
.step amp=1 freqs=22250 dts=20
.step amp=1.5 freqs=22250 dts=20
.step amp=2 freqs=22250 dts=20
.step amp=2.5 freqs=22250 dts=20
.step amp=3 freqs=22250 dts=20
.step amp=3.5 freqs=22250 dts=20
.step amp=4 freqs=22250 dts=20
.step amp=4.5 freqs=22250 dts=20
.step amp=5 freqs=22250 dts=20
.step amp=1 freqs=22500 dts=20
.step amp=1.5 freqs=22500 dts=20
.step amp=2 freqs=22500 dts=20
.step amp=2.5 freqs=22500 dts=20
.step amp=3 freqs=22500 dts=20
.step amp=3.5 freqs=22500 dts=20
.step amp=4 freqs=22500 dts=20
.step amp=4.5 freqs=22500 dts=20
.step amp=5 freqs=22500 dts=20
.step amp=1 freqs=22750 dts=20
.step amp=1.5 freqs=22750 dts=20
.step amp=2 freqs=22750 dts=20
.step amp=2.5 freqs=22750 dts=20
.step amp=3 freqs=22750 dts=20
.step amp=3.5 freqs=22750 dts=20
.step amp=4 freqs=22750 dts=20
.step amp=4.5 freqs=22750 dts=20
.step amp=5 freqs=22750 dts=20
.step amp=1 freqs=23000 dts=20
.step amp=1.5 freqs=23000 dts=20
.step amp=2 freqs=23000 dts=20
.step amp=2.5 freqs=23000 dts=20
.step amp=3 freqs=23000 dts=20
.step amp=3.5 freqs=23000 dts=20
.step amp=4 freqs=23000 dts=20
.step amp=4.5 freqs=23000 dts=20
.step amp=5 freqs=23000 dts=20
.step amp=1 freqs=23250 dts=20
.step amp=1.5 freqs=23250 dts=20
.step amp=2 freqs=23250 dts=20
.step amp=2.5 freqs=23250 dts=20
.step amp=3 freqs=23250 dts=20
.step amp=3.5 freqs=23250 dts=20
.step amp=4 freqs=23250 dts=20
.step amp=4.5 freqs=23250 dts=20
.step amp=5 freqs=23250 dts=20
.step amp=1 freqs=23500 dts=20
.step amp=1.5 freqs=23500 dts=20
.step amp=2 freqs=23500 dts=20
.step amp=2.5 freqs=23500 dts=20
.step amp=3 freqs=23500 dts=20
.step amp=3.5 freqs=23500 dts=20
.step amp=4 freqs=23500 dts=20
.step amp=4.5 freqs=23500 dts=20
.step amp=5 freqs=23500 dts=20
.step amp=1 freqs=23750 dts=20
.step amp=1.5 freqs=23750 dts=20
.step amp=2 freqs=23750 dts=20
.step amp=2.5 freqs=23750 dts=20
.step amp=3 freqs=23750 dts=20
.step amp=3.5 freqs=23750 dts=20
.step amp=4 freqs=23750 dts=20
.step amp=4.5 freqs=23750 dts=20
.step amp=5 freqs=23750 dts=20
.step amp=1 freqs=24000 dts=20
.step amp=1.5 freqs=24000 dts=20
.step amp=2 freqs=24000 dts=20
.step amp=2.5 freqs=24000 dts=20
.step amp=3 freqs=24000 dts=20
.step amp=3.5 freqs=24000 dts=20
.step amp=4 freqs=24000 dts=20
.step amp=4.5 freqs=24000 dts=20
.step amp=5 freqs=24000 dts=20
.step amp=1 freqs=24250 dts=20
.step amp=1.5 freqs=24250 dts=20
.step amp=2 freqs=24250 dts=20
.step amp=2.5 freqs=24250 dts=20
.step amp=3 freqs=24250 dts=20
.step amp=3.5 freqs=24250 dts=20
.step amp=4 freqs=24250 dts=20
.step amp=4.5 freqs=24250 dts=20
.step amp=5 freqs=24250 dts=20
.step amp=1 freqs=24500 dts=20
.step amp=1.5 freqs=24500 dts=20
.step amp=2 freqs=24500 dts=20
.step amp=2.5 freqs=24500 dts=20
.step amp=3 freqs=24500 dts=20
.step amp=3.5 freqs=24500 dts=20
.step amp=4 freqs=24500 dts=20
.step amp=4.5 freqs=24500 dts=20
.step amp=5 freqs=24500 dts=20
.step amp=1 freqs=24750 dts=20
.step amp=1.5 freqs=24750 dts=20
.step amp=2 freqs=24750 dts=20
.step amp=2.5 freqs=24750 dts=20
.step amp=3 freqs=24750 dts=20
.step amp=3.5 freqs=24750 dts=20
.step amp=4 freqs=24750 dts=20
.step amp=4.5 freqs=24750 dts=20
.step amp=5 freqs=24750 dts=20
.step amp=1 freqs=25000 dts=20
.step amp=1.5 freqs=25000 dts=20
.step amp=2 freqs=25000 dts=20
.step amp=2.5 freqs=25000 dts=20
.step amp=3 freqs=25000 dts=20
.step amp=3.5 freqs=25000 dts=20
.step amp=4 freqs=25000 dts=20
.step amp=4.5 freqs=25000 dts=20
.step amp=5 freqs=25000 dts=20
.step amp=1 freqs=20000 dts=25
.step amp=1.5 freqs=20000 dts=25
.step amp=2 freqs=20000 dts=25
.step amp=2.5 freqs=20000 dts=25
.step amp=3 freqs=20000 dts=25
.step amp=3.5 freqs=20000 dts=25
.step amp=4 freqs=20000 dts=25
.step amp=4.5 freqs=20000 dts=25
.step amp=5 freqs=20000 dts=25
.step amp=1 freqs=20250 dts=25
.step amp=1.5 freqs=20250 dts=25
.step amp=2 freqs=20250 dts=25
.step amp=2.5 freqs=20250 dts=25
.step amp=3 freqs=20250 dts=25
.step amp=3.5 freqs=20250 dts=25
.step amp=4 freqs=20250 dts=25
.step amp=4.5 freqs=20250 dts=25
.step amp=5 freqs=20250 dts=25
.step amp=1 freqs=20500 dts=25
.step amp=1.5 freqs=20500 dts=25
.step amp=2 freqs=20500 dts=25
.step amp=2.5 freqs=20500 dts=25
.step amp=3 freqs=20500 dts=25
.step amp=3.5 freqs=20500 dts=25
.step amp=4 freqs=20500 dts=25
.step amp=4.5 freqs=20500 dts=25
.step amp=5 freqs=20500 dts=25
.step amp=1 freqs=20750 dts=25
.step amp=1.5 freqs=20750 dts=25
.step amp=2 freqs=20750 dts=25
.step amp=2.5 freqs=20750 dts=25
.step amp=3 freqs=20750 dts=25
.step amp=3.5 freqs=20750 dts=25
.step amp=4 freqs=20750 dts=25
.step amp=4.5 freqs=20750 dts=25
.step amp=5 freqs=20750 dts=25
.step amp=1 freqs=21000 dts=25
.step amp=1.5 freqs=21000 dts=25
.step amp=2 freqs=21000 dts=25
.step amp=2.5 freqs=21000 dts=25
.step amp=3 freqs=21000 dts=25
.step amp=3.5 freqs=21000 dts=25
.step amp=4 freqs=21000 dts=25
.step amp=4.5 freqs=21000 dts=25
.step amp=5 freqs=21000 dts=25
.step amp=1 freqs=21250 dts=25
.step amp=1.5 freqs=21250 dts=25
.step amp=2 freqs=21250 dts=25
.step amp=2.5 freqs=21250 dts=25
.step amp=3 freqs=21250 dts=25
.step amp=3.5 freqs=21250 dts=25
.step amp=4 freqs=21250 dts=25
.step amp=4.5 freqs=21250 dts=25
.step amp=5 freqs=21250 dts=25
.step amp=1 freqs=21500 dts=25
.step amp=1.5 freqs=21500 dts=25
.step amp=2 freqs=21500 dts=25
.step amp=2.5 freqs=21500 dts=25
.step amp=3 freqs=21500 dts=25
.step amp=3.5 freqs=21500 dts=25
.step amp=4 freqs=21500 dts=25
.step amp=4.5 freqs=21500 dts=25
.step amp=5 freqs=21500 dts=25
.step amp=1 freqs=21750 dts=25
.step amp=1.5 freqs=21750 dts=25
.step amp=2 freqs=21750 dts=25
.step amp=2.5 freqs=21750 dts=25
.step amp=3 freqs=21750 dts=25
.step amp=3.5 freqs=21750 dts=25
.step amp=4 freqs=21750 dts=25
.step amp=4.5 freqs=21750 dts=25
.step amp=5 freqs=21750 dts=25
.step amp=1 freqs=22000 dts=25
.step amp=1.5 freqs=22000 dts=25
.step amp=2 freqs=22000 dts=25
.step amp=2.5 freqs=22000 dts=25
.step amp=3 freqs=22000 dts=25
.step amp=3.5 freqs=22000 dts=25
.step amp=4 freqs=22000 dts=25
.step amp=4.5 freqs=22000 dts=25
.step amp=5 freqs=22000 dts=25
.step amp=1 freqs=22250 dts=25
.step amp=1.5 freqs=22250 dts=25
.step amp=2 freqs=22250 dts=25
.step amp=2.5 freqs=22250 dts=25
.step amp=3 freqs=22250 dts=25
.step amp=3.5 freqs=22250 dts=25
.step amp=4 freqs=22250 dts=25
.step amp=4.5 freqs=22250 dts=25
.step amp=5 freqs=22250 dts=25
.step amp=1 freqs=22500 dts=25
.step amp=1.5 freqs=22500 dts=25
.step amp=2 freqs=22500 dts=25
.step amp=2.5 freqs=22500 dts=25
.step amp=3 freqs=22500 dts=25
.step amp=3.5 freqs=22500 dts=25
.step amp=4 freqs=22500 dts=25
.step amp=4.5 freqs=22500 dts=25
.step amp=5 freqs=22500 dts=25
.step amp=1 freqs=22750 dts=25
.step amp=1.5 freqs=22750 dts=25
.step amp=2 freqs=22750 dts=25
.step amp=2.5 freqs=22750 dts=25
.step amp=3 freqs=22750 dts=25
.step amp=3.5 freqs=22750 dts=25
.step amp=4 freqs=22750 dts=25
.step amp=4.5 freqs=22750 dts=25
.step amp=5 freqs=22750 dts=25
.step amp=1 freqs=23000 dts=25
.step amp=1.5 freqs=23000 dts=25
.step amp=2 freqs=23000 dts=25
.step amp=2.5 freqs=23000 dts=25
.step amp=3 freqs=23000 dts=25
.step amp=3.5 freqs=23000 dts=25
.step amp=4 freqs=23000 dts=25
.step amp=4.5 freqs=23000 dts=25
.step amp=5 freqs=23000 dts=25
.step amp=1 freqs=23250 dts=25
.step amp=1.5 freqs=23250 dts=25
.step amp=2 freqs=23250 dts=25
.step amp=2.5 freqs=23250 dts=25
.step amp=3 freqs=23250 dts=25
.step amp=3.5 freqs=23250 dts=25
.step amp=4 freqs=23250 dts=25
.step amp=4.5 freqs=23250 dts=25
.step amp=5 freqs=23250 dts=25
.step amp=1 freqs=23500 dts=25
.step amp=1.5 freqs=23500 dts=25
.step amp=2 freqs=23500 dts=25
.step amp=2.5 freqs=23500 dts=25
.step amp=3 freqs=23500 dts=25
.step amp=3.5 freqs=23500 dts=25
.step amp=4 freqs=23500 dts=25
.step amp=4.5 freqs=23500 dts=25
.step amp=5 freqs=23500 dts=25
.step amp=1 freqs=23750 dts=25
.step amp=1.5 freqs=23750 dts=25
.step amp=2 freqs=23750 dts=25
.step amp=2.5 freqs=23750 dts=25
.step amp=3 freqs=23750 dts=25
.step amp=3.5 freqs=23750 dts=25
.step amp=4 freqs=23750 dts=25
.step amp=4.5 freqs=23750 dts=25
.step amp=5 freqs=23750 dts=25
.step amp=1 freqs=24000 dts=25
.step amp=1.5 freqs=24000 dts=25
.step amp=2 freqs=24000 dts=25
.step amp=2.5 freqs=24000 dts=25
.step amp=3 freqs=24000 dts=25
.step amp=3.5 freqs=24000 dts=25
.step amp=4 freqs=24000 dts=25
.step amp=4.5 freqs=24000 dts=25
.step amp=5 freqs=24000 dts=25
.step amp=1 freqs=24250 dts=25
.step amp=1.5 freqs=24250 dts=25
.step amp=2 freqs=24250 dts=25
.step amp=2.5 freqs=24250 dts=25
.step amp=3 freqs=24250 dts=25
.step amp=3.5 freqs=24250 dts=25
.step amp=4 freqs=24250 dts=25
.step amp=4.5 freqs=24250 dts=25
.step amp=5 freqs=24250 dts=25
.step amp=1 freqs=24500 dts=25
.step amp=1.5 freqs=24500 dts=25
.step amp=2 freqs=24500 dts=25
.step amp=2.5 freqs=24500 dts=25
.step amp=3 freqs=24500 dts=25
.step amp=3.5 freqs=24500 dts=25
.step amp=4 freqs=24500 dts=25
.step amp=4.5 freqs=24500 dts=25
.step amp=5 freqs=24500 dts=25
.step amp=1 freqs=24750 dts=25
.step amp=1.5 freqs=24750 dts=25
.step amp=2 freqs=24750 dts=25
.step amp=2.5 freqs=24750 dts=25
.step amp=3 freqs=24750 dts=25
.step amp=3.5 freqs=24750 dts=25
.step amp=4 freqs=24750 dts=25
.step amp=4.5 freqs=24750 dts=25
.step amp=5 freqs=24750 dts=25
.step amp=1 freqs=25000 dts=25
.step amp=1.5 freqs=25000 dts=25
.step amp=2 freqs=25000 dts=25
.step amp=2.5 freqs=25000 dts=25
.step amp=3 freqs=25000 dts=25
.step amp=3.5 freqs=25000 dts=25
.step amp=4 freqs=25000 dts=25
.step amp=4.5 freqs=25000 dts=25
.step amp=5 freqs=25000 dts=25
.step amp=1 freqs=20000 dts=30
.step amp=1.5 freqs=20000 dts=30
.step amp=2 freqs=20000 dts=30
.step amp=2.5 freqs=20000 dts=30
.step amp=3 freqs=20000 dts=30
.step amp=3.5 freqs=20000 dts=30
.step amp=4 freqs=20000 dts=30
.step amp=4.5 freqs=20000 dts=30
.step amp=5 freqs=20000 dts=30
.step amp=1 freqs=20250 dts=30
.step amp=1.5 freqs=20250 dts=30
.step amp=2 freqs=20250 dts=30
.step amp=2.5 freqs=20250 dts=30
.step amp=3 freqs=20250 dts=30
.step amp=3.5 freqs=20250 dts=30
.step amp=4 freqs=20250 dts=30
.step amp=4.5 freqs=20250 dts=30
.step amp=5 freqs=20250 dts=30
.step amp=1 freqs=20500 dts=30
.step amp=1.5 freqs=20500 dts=30
.step amp=2 freqs=20500 dts=30
.step amp=2.5 freqs=20500 dts=30
.step amp=3 freqs=20500 dts=30
.step amp=3.5 freqs=20500 dts=30
.step amp=4 freqs=20500 dts=30
.step amp=4.5 freqs=20500 dts=30
.step amp=5 freqs=20500 dts=30
.step amp=1 freqs=20750 dts=30
.step amp=1.5 freqs=20750 dts=30
.step amp=2 freqs=20750 dts=30
.step amp=2.5 freqs=20750 dts=30
.step amp=3 freqs=20750 dts=30
.step amp=3.5 freqs=20750 dts=30
.step amp=4 freqs=20750 dts=30
.step amp=4.5 freqs=20750 dts=30
.step amp=5 freqs=20750 dts=30
.step amp=1 freqs=21000 dts=30
.step amp=1.5 freqs=21000 dts=30
.step amp=2 freqs=21000 dts=30
.step amp=2.5 freqs=21000 dts=30
.step amp=3 freqs=21000 dts=30
.step amp=3.5 freqs=21000 dts=30
.step amp=4 freqs=21000 dts=30
.step amp=4.5 freqs=21000 dts=30
.step amp=5 freqs=21000 dts=30
.step amp=1 freqs=21250 dts=30
.step amp=1.5 freqs=21250 dts=30
.step amp=2 freqs=21250 dts=30
.step amp=2.5 freqs=21250 dts=30
.step amp=3 freqs=21250 dts=30
.step amp=3.5 freqs=21250 dts=30
.step amp=4 freqs=21250 dts=30
.step amp=4.5 freqs=21250 dts=30
.step amp=5 freqs=21250 dts=30
.step amp=1 freqs=21500 dts=30
.step amp=1.5 freqs=21500 dts=30
.step amp=2 freqs=21500 dts=30
.step amp=2.5 freqs=21500 dts=30
.step amp=3 freqs=21500 dts=30
.step amp=3.5 freqs=21500 dts=30
.step amp=4 freqs=21500 dts=30
.step amp=4.5 freqs=21500 dts=30
.step amp=5 freqs=21500 dts=30
.step amp=1 freqs=21750 dts=30
.step amp=1.5 freqs=21750 dts=30
.step amp=2 freqs=21750 dts=30
.step amp=2.5 freqs=21750 dts=30
.step amp=3 freqs=21750 dts=30
.step amp=3.5 freqs=21750 dts=30
.step amp=4 freqs=21750 dts=30
.step amp=4.5 freqs=21750 dts=30
.step amp=5 freqs=21750 dts=30
.step amp=1 freqs=22000 dts=30
.step amp=1.5 freqs=22000 dts=30
.step amp=2 freqs=22000 dts=30
.step amp=2.5 freqs=22000 dts=30
.step amp=3 freqs=22000 dts=30
.step amp=3.5 freqs=22000 dts=30
.step amp=4 freqs=22000 dts=30
.step amp=4.5 freqs=22000 dts=30
.step amp=5 freqs=22000 dts=30
.step amp=1 freqs=22250 dts=30
.step amp=1.5 freqs=22250 dts=30
.step amp=2 freqs=22250 dts=30
.step amp=2.5 freqs=22250 dts=30
.step amp=3 freqs=22250 dts=30
.step amp=3.5 freqs=22250 dts=30
.step amp=4 freqs=22250 dts=30
.step amp=4.5 freqs=22250 dts=30
.step amp=5 freqs=22250 dts=30
.step amp=1 freqs=22500 dts=30
.step amp=1.5 freqs=22500 dts=30
.step amp=2 freqs=22500 dts=30
.step amp=2.5 freqs=22500 dts=30
.step amp=3 freqs=22500 dts=30
.step amp=3.5 freqs=22500 dts=30
.step amp=4 freqs=22500 dts=30
.step amp=4.5 freqs=22500 dts=30
.step amp=5 freqs=22500 dts=30
.step amp=1 freqs=22750 dts=30
.step amp=1.5 freqs=22750 dts=30
.step amp=2 freqs=22750 dts=30
.step amp=2.5 freqs=22750 dts=30
.step amp=3 freqs=22750 dts=30
.step amp=3.5 freqs=22750 dts=30
.step amp=4 freqs=22750 dts=30
.step amp=4.5 freqs=22750 dts=30
.step amp=5 freqs=22750 dts=30
.step amp=1 freqs=23000 dts=30
.step amp=1.5 freqs=23000 dts=30
.step amp=2 freqs=23000 dts=30
.step amp=2.5 freqs=23000 dts=30
.step amp=3 freqs=23000 dts=30
.step amp=3.5 freqs=23000 dts=30
.step amp=4 freqs=23000 dts=30
.step amp=4.5 freqs=23000 dts=30
.step amp=5 freqs=23000 dts=30
.step amp=1 freqs=23250 dts=30
.step amp=1.5 freqs=23250 dts=30
.step amp=2 freqs=23250 dts=30
.step amp=2.5 freqs=23250 dts=30
.step amp=3 freqs=23250 dts=30
.step amp=3.5 freqs=23250 dts=30
.step amp=4 freqs=23250 dts=30
.step amp=4.5 freqs=23250 dts=30
.step amp=5 freqs=23250 dts=30
.step amp=1 freqs=23500 dts=30
.step amp=1.5 freqs=23500 dts=30
.step amp=2 freqs=23500 dts=30
.step amp=2.5 freqs=23500 dts=30
.step amp=3 freqs=23500 dts=30
.step amp=3.5 freqs=23500 dts=30
.step amp=4 freqs=23500 dts=30
.step amp=4.5 freqs=23500 dts=30
.step amp=5 freqs=23500 dts=30
.step amp=1 freqs=23750 dts=30
.step amp=1.5 freqs=23750 dts=30
.step amp=2 freqs=23750 dts=30
.step amp=2.5 freqs=23750 dts=30
.step amp=3 freqs=23750 dts=30
.step amp=3.5 freqs=23750 dts=30
.step amp=4 freqs=23750 dts=30
.step amp=4.5 freqs=23750 dts=30
.step amp=5 freqs=23750 dts=30
.step amp=1 freqs=24000 dts=30
.step amp=1.5 freqs=24000 dts=30
.step amp=2 freqs=24000 dts=30
.step amp=2.5 freqs=24000 dts=30
.step amp=3 freqs=24000 dts=30
.step amp=3.5 freqs=24000 dts=30
.step amp=4 freqs=24000 dts=30
.step amp=4.5 freqs=24000 dts=30
.step amp=5 freqs=24000 dts=30
.step amp=1 freqs=24250 dts=30
.step amp=1.5 freqs=24250 dts=30
.step amp=2 freqs=24250 dts=30
.step amp=2.5 freqs=24250 dts=30
.step amp=3 freqs=24250 dts=30
.step amp=3.5 freqs=24250 dts=30
.step amp=4 freqs=24250 dts=30
.step amp=4.5 freqs=24250 dts=30
.step amp=5 freqs=24250 dts=30
.step amp=1 freqs=24500 dts=30
.step amp=1.5 freqs=24500 dts=30
.step amp=2 freqs=24500 dts=30
.step amp=2.5 freqs=24500 dts=30
.step amp=3 freqs=24500 dts=30
.step amp=3.5 freqs=24500 dts=30
.step amp=4 freqs=24500 dts=30
.step amp=4.5 freqs=24500 dts=30
.step amp=5 freqs=24500 dts=30
.step amp=1 freqs=24750 dts=30
.step amp=1.5 freqs=24750 dts=30
.step amp=2 freqs=24750 dts=30
.step amp=2.5 freqs=24750 dts=30
.step amp=3 freqs=24750 dts=30
.step amp=3.5 freqs=24750 dts=30
.step amp=4 freqs=24750 dts=30
.step amp=4.5 freqs=24750 dts=30
.step amp=5 freqs=24750 dts=30
.step amp=1 freqs=25000 dts=30
.step amp=1.5 freqs=25000 dts=30
.step amp=2 freqs=25000 dts=30
.step amp=2.5 freqs=25000 dts=30
.step amp=3 freqs=25000 dts=30
.step amp=3.5 freqs=25000 dts=30
.step amp=4 freqs=25000 dts=30
.step amp=4.5 freqs=25000 dts=30
.step amp=5 freqs=25000 dts=30
.step amp=1 freqs=20000 dts=35
.step amp=1.5 freqs=20000 dts=35
.step amp=2 freqs=20000 dts=35
.step amp=2.5 freqs=20000 dts=35
.step amp=3 freqs=20000 dts=35
.step amp=3.5 freqs=20000 dts=35
.step amp=4 freqs=20000 dts=35
.step amp=4.5 freqs=20000 dts=35
.step amp=5 freqs=20000 dts=35
.step amp=1 freqs=20250 dts=35
.step amp=1.5 freqs=20250 dts=35
.step amp=2 freqs=20250 dts=35
.step amp=2.5 freqs=20250 dts=35
.step amp=3 freqs=20250 dts=35
.step amp=3.5 freqs=20250 dts=35
.step amp=4 freqs=20250 dts=35
.step amp=4.5 freqs=20250 dts=35
.step amp=5 freqs=20250 dts=35
.step amp=1 freqs=20500 dts=35
.step amp=1.5 freqs=20500 dts=35
.step amp=2 freqs=20500 dts=35
.step amp=2.5 freqs=20500 dts=35
.step amp=3 freqs=20500 dts=35
.step amp=3.5 freqs=20500 dts=35
.step amp=4 freqs=20500 dts=35
.step amp=4.5 freqs=20500 dts=35
.step amp=5 freqs=20500 dts=35
.step amp=1 freqs=20750 dts=35
.step amp=1.5 freqs=20750 dts=35
.step amp=2 freqs=20750 dts=35
.step amp=2.5 freqs=20750 dts=35
.step amp=3 freqs=20750 dts=35
.step amp=3.5 freqs=20750 dts=35
.step amp=4 freqs=20750 dts=35
.step amp=4.5 freqs=20750 dts=35
.step amp=5 freqs=20750 dts=35
.step amp=1 freqs=21000 dts=35
.step amp=1.5 freqs=21000 dts=35
.step amp=2 freqs=21000 dts=35
.step amp=2.5 freqs=21000 dts=35
.step amp=3 freqs=21000 dts=35
.step amp=3.5 freqs=21000 dts=35
.step amp=4 freqs=21000 dts=35
.step amp=4.5 freqs=21000 dts=35
.step amp=5 freqs=21000 dts=35
.step amp=1 freqs=21250 dts=35
.step amp=1.5 freqs=21250 dts=35
.step amp=2 freqs=21250 dts=35
.step amp=2.5 freqs=21250 dts=35
.step amp=3 freqs=21250 dts=35
.step amp=3.5 freqs=21250 dts=35
.step amp=4 freqs=21250 dts=35
.step amp=4.5 freqs=21250 dts=35
.step amp=5 freqs=21250 dts=35
.step amp=1 freqs=21500 dts=35
.step amp=1.5 freqs=21500 dts=35
.step amp=2 freqs=21500 dts=35
.step amp=2.5 freqs=21500 dts=35
.step amp=3 freqs=21500 dts=35
.step amp=3.5 freqs=21500 dts=35
.step amp=4 freqs=21500 dts=35
.step amp=4.5 freqs=21500 dts=35
.step amp=5 freqs=21500 dts=35
.step amp=1 freqs=21750 dts=35
.step amp=1.5 freqs=21750 dts=35
.step amp=2 freqs=21750 dts=35
.step amp=2.5 freqs=21750 dts=35
.step amp=3 freqs=21750 dts=35
.step amp=3.5 freqs=21750 dts=35
.step amp=4 freqs=21750 dts=35
.step amp=4.5 freqs=21750 dts=35
.step amp=5 freqs=21750 dts=35
.step amp=1 freqs=22000 dts=35
.step amp=1.5 freqs=22000 dts=35
.step amp=2 freqs=22000 dts=35
.step amp=2.5 freqs=22000 dts=35
.step amp=3 freqs=22000 dts=35
.step amp=3.5 freqs=22000 dts=35
.step amp=4 freqs=22000 dts=35
.step amp=4.5 freqs=22000 dts=35
.step amp=5 freqs=22000 dts=35
.step amp=1 freqs=22250 dts=35
.step amp=1.5 freqs=22250 dts=35
.step amp=2 freqs=22250 dts=35
.step amp=2.5 freqs=22250 dts=35
.step amp=3 freqs=22250 dts=35
.step amp=3.5 freqs=22250 dts=35
.step amp=4 freqs=22250 dts=35
.step amp=4.5 freqs=22250 dts=35
.step amp=5 freqs=22250 dts=35
.step amp=1 freqs=22500 dts=35
.step amp=1.5 freqs=22500 dts=35
.step amp=2 freqs=22500 dts=35
.step amp=2.5 freqs=22500 dts=35
.step amp=3 freqs=22500 dts=35
.step amp=3.5 freqs=22500 dts=35
.step amp=4 freqs=22500 dts=35
.step amp=4.5 freqs=22500 dts=35
.step amp=5 freqs=22500 dts=35
.step amp=1 freqs=22750 dts=35
.step amp=1.5 freqs=22750 dts=35
.step amp=2 freqs=22750 dts=35
.step amp=2.5 freqs=22750 dts=35
.step amp=3 freqs=22750 dts=35
.step amp=3.5 freqs=22750 dts=35
.step amp=4 freqs=22750 dts=35
.step amp=4.5 freqs=22750 dts=35
.step amp=5 freqs=22750 dts=35
.step amp=1 freqs=23000 dts=35
.step amp=1.5 freqs=23000 dts=35
.step amp=2 freqs=23000 dts=35
.step amp=2.5 freqs=23000 dts=35
.step amp=3 freqs=23000 dts=35
.step amp=3.5 freqs=23000 dts=35
.step amp=4 freqs=23000 dts=35
.step amp=4.5 freqs=23000 dts=35
.step amp=5 freqs=23000 dts=35
.step amp=1 freqs=23250 dts=35
.step amp=1.5 freqs=23250 dts=35
.step amp=2 freqs=23250 dts=35
.step amp=2.5 freqs=23250 dts=35
.step amp=3 freqs=23250 dts=35
.step amp=3.5 freqs=23250 dts=35
.step amp=4 freqs=23250 dts=35
.step amp=4.5 freqs=23250 dts=35
.step amp=5 freqs=23250 dts=35
.step amp=1 freqs=23500 dts=35
.step amp=1.5 freqs=23500 dts=35
.step amp=2 freqs=23500 dts=35
.step amp=2.5 freqs=23500 dts=35
.step amp=3 freqs=23500 dts=35
.step amp=3.5 freqs=23500 dts=35
.step amp=4 freqs=23500 dts=35
.step amp=4.5 freqs=23500 dts=35
.step amp=5 freqs=23500 dts=35
.step amp=1 freqs=23750 dts=35
.step amp=1.5 freqs=23750 dts=35
.step amp=2 freqs=23750 dts=35
.step amp=2.5 freqs=23750 dts=35
.step amp=3 freqs=23750 dts=35
.step amp=3.5 freqs=23750 dts=35
.step amp=4 freqs=23750 dts=35
.step amp=4.5 freqs=23750 dts=35
.step amp=5 freqs=23750 dts=35
.step amp=1 freqs=24000 dts=35
.step amp=1.5 freqs=24000 dts=35
.step amp=2 freqs=24000 dts=35
.step amp=2.5 freqs=24000 dts=35
.step amp=3 freqs=24000 dts=35
.step amp=3.5 freqs=24000 dts=35
.step amp=4 freqs=24000 dts=35
.step amp=4.5 freqs=24000 dts=35
.step amp=5 freqs=24000 dts=35
.step amp=1 freqs=24250 dts=35
.step amp=1.5 freqs=24250 dts=35
.step amp=2 freqs=24250 dts=35
.step amp=2.5 freqs=24250 dts=35
.step amp=3 freqs=24250 dts=35
.step amp=3.5 freqs=24250 dts=35
.step amp=4 freqs=24250 dts=35
.step amp=4.5 freqs=24250 dts=35
.step amp=5 freqs=24250 dts=35
.step amp=1 freqs=24500 dts=35
.step amp=1.5 freqs=24500 dts=35
.step amp=2 freqs=24500 dts=35
.step amp=2.5 freqs=24500 dts=35
.step amp=3 freqs=24500 dts=35
.step amp=3.5 freqs=24500 dts=35
.step amp=4 freqs=24500 dts=35
.step amp=4.5 freqs=24500 dts=35
.step amp=5 freqs=24500 dts=35
.step amp=1 freqs=24750 dts=35
.step amp=1.5 freqs=24750 dts=35
.step amp=2 freqs=24750 dts=35
.step amp=2.5 freqs=24750 dts=35
.step amp=3 freqs=24750 dts=35
.step amp=3.5 freqs=24750 dts=35
.step amp=4 freqs=24750 dts=35
.step amp=4.5 freqs=24750 dts=35
.step amp=5 freqs=24750 dts=35
.step amp=1 freqs=25000 dts=35
.step amp=1.5 freqs=25000 dts=35
.step amp=2 freqs=25000 dts=35
.step amp=2.5 freqs=25000 dts=35
.step amp=3 freqs=25000 dts=35
.step amp=3.5 freqs=25000 dts=35
.step amp=4 freqs=25000 dts=35
.step amp=4.5 freqs=25000 dts=35
.step amp=5 freqs=25000 dts=35
.step amp=1 freqs=20000 dts=40
.step amp=1.5 freqs=20000 dts=40
.step amp=2 freqs=20000 dts=40
.step amp=2.5 freqs=20000 dts=40
.step amp=3 freqs=20000 dts=40
.step amp=3.5 freqs=20000 dts=40
.step amp=4 freqs=20000 dts=40
.step amp=4.5 freqs=20000 dts=40
.step amp=5 freqs=20000 dts=40
.step amp=1 freqs=20250 dts=40
.step amp=1.5 freqs=20250 dts=40
.step amp=2 freqs=20250 dts=40
.step amp=2.5 freqs=20250 dts=40
.step amp=3 freqs=20250 dts=40
.step amp=3.5 freqs=20250 dts=40
.step amp=4 freqs=20250 dts=40
.step amp=4.5 freqs=20250 dts=40
.step amp=5 freqs=20250 dts=40
.step amp=1 freqs=20500 dts=40
.step amp=1.5 freqs=20500 dts=40
.step amp=2 freqs=20500 dts=40
.step amp=2.5 freqs=20500 dts=40
.step amp=3 freqs=20500 dts=40
.step amp=3.5 freqs=20500 dts=40
.step amp=4 freqs=20500 dts=40
.step amp=4.5 freqs=20500 dts=40
.step amp=5 freqs=20500 dts=40
.step amp=1 freqs=20750 dts=40
.step amp=1.5 freqs=20750 dts=40
.step amp=2 freqs=20750 dts=40
.step amp=2.5 freqs=20750 dts=40
.step amp=3 freqs=20750 dts=40
.step amp=3.5 freqs=20750 dts=40
.step amp=4 freqs=20750 dts=40
.step amp=4.5 freqs=20750 dts=40
.step amp=5 freqs=20750 dts=40
.step amp=1 freqs=21000 dts=40
.step amp=1.5 freqs=21000 dts=40
.step amp=2 freqs=21000 dts=40
.step amp=2.5 freqs=21000 dts=40
.step amp=3 freqs=21000 dts=40
.step amp=3.5 freqs=21000 dts=40
.step amp=4 freqs=21000 dts=40
.step amp=4.5 freqs=21000 dts=40
.step amp=5 freqs=21000 dts=40
.step amp=1 freqs=21250 dts=40
.step amp=1.5 freqs=21250 dts=40
.step amp=2 freqs=21250 dts=40
.step amp=2.5 freqs=21250 dts=40
.step amp=3 freqs=21250 dts=40
.step amp=3.5 freqs=21250 dts=40
.step amp=4 freqs=21250 dts=40
.step amp=4.5 freqs=21250 dts=40
.step amp=5 freqs=21250 dts=40
.step amp=1 freqs=21500 dts=40
.step amp=1.5 freqs=21500 dts=40
.step amp=2 freqs=21500 dts=40
.step amp=2.5 freqs=21500 dts=40
.step amp=3 freqs=21500 dts=40
.step amp=3.5 freqs=21500 dts=40
.step amp=4 freqs=21500 dts=40
.step amp=4.5 freqs=21500 dts=40
.step amp=5 freqs=21500 dts=40
.step amp=1 freqs=21750 dts=40
.step amp=1.5 freqs=21750 dts=40
.step amp=2 freqs=21750 dts=40
.step amp=2.5 freqs=21750 dts=40
.step amp=3 freqs=21750 dts=40
.step amp=3.5 freqs=21750 dts=40
.step amp=4 freqs=21750 dts=40
.step amp=4.5 freqs=21750 dts=40
.step amp=5 freqs=21750 dts=40
.step amp=1 freqs=22000 dts=40
.step amp=1.5 freqs=22000 dts=40
.step amp=2 freqs=22000 dts=40
.step amp=2.5 freqs=22000 dts=40
.step amp=3 freqs=22000 dts=40
.step amp=3.5 freqs=22000 dts=40
.step amp=4 freqs=22000 dts=40
.step amp=4.5 freqs=22000 dts=40
.step amp=5 freqs=22000 dts=40
.step amp=1 freqs=22250 dts=40
.step amp=1.5 freqs=22250 dts=40
.step amp=2 freqs=22250 dts=40
.step amp=2.5 freqs=22250 dts=40
.step amp=3 freqs=22250 dts=40
.step amp=3.5 freqs=22250 dts=40
.step amp=4 freqs=22250 dts=40
.step amp=4.5 freqs=22250 dts=40
.step amp=5 freqs=22250 dts=40
.step amp=1 freqs=22500 dts=40
.step amp=1.5 freqs=22500 dts=40
.step amp=2 freqs=22500 dts=40
.step amp=2.5 freqs=22500 dts=40
.step amp=3 freqs=22500 dts=40
.step amp=3.5 freqs=22500 dts=40
.step amp=4 freqs=22500 dts=40
.step amp=4.5 freqs=22500 dts=40
.step amp=5 freqs=22500 dts=40
.step amp=1 freqs=22750 dts=40
.step amp=1.5 freqs=22750 dts=40
.step amp=2 freqs=22750 dts=40
.step amp=2.5 freqs=22750 dts=40
.step amp=3 freqs=22750 dts=40
.step amp=3.5 freqs=22750 dts=40
.step amp=4 freqs=22750 dts=40
.step amp=4.5 freqs=22750 dts=40
.step amp=5 freqs=22750 dts=40
.step amp=1 freqs=23000 dts=40
.step amp=1.5 freqs=23000 dts=40
.step amp=2 freqs=23000 dts=40
.step amp=2.5 freqs=23000 dts=40
.step amp=3 freqs=23000 dts=40
.step amp=3.5 freqs=23000 dts=40
.step amp=4 freqs=23000 dts=40
.step amp=4.5 freqs=23000 dts=40
.step amp=5 freqs=23000 dts=40
.step amp=1 freqs=23250 dts=40
.step amp=1.5 freqs=23250 dts=40
.step amp=2 freqs=23250 dts=40
.step amp=2.5 freqs=23250 dts=40
.step amp=3 freqs=23250 dts=40
.step amp=3.5 freqs=23250 dts=40
.step amp=4 freqs=23250 dts=40
.step amp=4.5 freqs=23250 dts=40
.step amp=5 freqs=23250 dts=40
.step amp=1 freqs=23500 dts=40
.step amp=1.5 freqs=23500 dts=40
.step amp=2 freqs=23500 dts=40
.step amp=2.5 freqs=23500 dts=40
.step amp=3 freqs=23500 dts=40
.step amp=3.5 freqs=23500 dts=40
.step amp=4 freqs=23500 dts=40
.step amp=4.5 freqs=23500 dts=40
.step amp=5 freqs=23500 dts=40
.step amp=1 freqs=23750 dts=40
.step amp=1.5 freqs=23750 dts=40
.step amp=2 freqs=23750 dts=40
.step amp=2.5 freqs=23750 dts=40
.step amp=3 freqs=23750 dts=40
.step amp=3.5 freqs=23750 dts=40
.step amp=4 freqs=23750 dts=40
.step amp=4.5 freqs=23750 dts=40
.step amp=5 freqs=23750 dts=40
.step amp=1 freqs=24000 dts=40
.step amp=1.5 freqs=24000 dts=40
.step amp=2 freqs=24000 dts=40
.step amp=2.5 freqs=24000 dts=40
.step amp=3 freqs=24000 dts=40
.step amp=3.5 freqs=24000 dts=40
.step amp=4 freqs=24000 dts=40
.step amp=4.5 freqs=24000 dts=40
.step amp=5 freqs=24000 dts=40
.step amp=1 freqs=24250 dts=40
.step amp=1.5 freqs=24250 dts=40
.step amp=2 freqs=24250 dts=40
.step amp=2.5 freqs=24250 dts=40
.step amp=3 freqs=24250 dts=40
.step amp=3.5 freqs=24250 dts=40
.step amp=4 freqs=24250 dts=40
.step amp=4.5 freqs=24250 dts=40
.step amp=5 freqs=24250 dts=40
.step amp=1 freqs=24500 dts=40
.step amp=1.5 freqs=24500 dts=40
.step amp=2 freqs=24500 dts=40
.step amp=2.5 freqs=24500 dts=40
.step amp=3 freqs=24500 dts=40
.step amp=3.5 freqs=24500 dts=40
.step amp=4 freqs=24500 dts=40
.step amp=4.5 freqs=24500 dts=40
.step amp=5 freqs=24500 dts=40
.step amp=1 freqs=24750 dts=40
.step amp=1.5 freqs=24750 dts=40
.step amp=2 freqs=24750 dts=40
.step amp=2.5 freqs=24750 dts=40
.step amp=3 freqs=24750 dts=40
.step amp=3.5 freqs=24750 dts=40
.step amp=4 freqs=24750 dts=40
.step amp=4.5 freqs=24750 dts=40
.step amp=5 freqs=24750 dts=40
.step amp=1 freqs=25000 dts=40
.step amp=1.5 freqs=25000 dts=40
.step amp=2 freqs=25000 dts=40
.step amp=2.5 freqs=25000 dts=40
.step amp=3 freqs=25000 dts=40
.step amp=3.5 freqs=25000 dts=40
.step amp=4 freqs=25000 dts=40
.step amp=4.5 freqs=25000 dts=40
.step amp=5 freqs=25000 dts=40
.step amp=1 freqs=20000 dts=45
.step amp=1.5 freqs=20000 dts=45
.step amp=2 freqs=20000 dts=45
.step amp=2.5 freqs=20000 dts=45
.step amp=3 freqs=20000 dts=45
.step amp=3.5 freqs=20000 dts=45
.step amp=4 freqs=20000 dts=45
.step amp=4.5 freqs=20000 dts=45
.step amp=5 freqs=20000 dts=45
.step amp=1 freqs=20250 dts=45
.step amp=1.5 freqs=20250 dts=45
.step amp=2 freqs=20250 dts=45
.step amp=2.5 freqs=20250 dts=45
.step amp=3 freqs=20250 dts=45
.step amp=3.5 freqs=20250 dts=45
.step amp=4 freqs=20250 dts=45
.step amp=4.5 freqs=20250 dts=45
.step amp=5 freqs=20250 dts=45
.step amp=1 freqs=20500 dts=45
.step amp=1.5 freqs=20500 dts=45
.step amp=2 freqs=20500 dts=45
.step amp=2.5 freqs=20500 dts=45
.step amp=3 freqs=20500 dts=45
.step amp=3.5 freqs=20500 dts=45
.step amp=4 freqs=20500 dts=45
.step amp=4.5 freqs=20500 dts=45
.step amp=5 freqs=20500 dts=45
.step amp=1 freqs=20750 dts=45
.step amp=1.5 freqs=20750 dts=45
.step amp=2 freqs=20750 dts=45
.step amp=2.5 freqs=20750 dts=45
.step amp=3 freqs=20750 dts=45
.step amp=3.5 freqs=20750 dts=45
.step amp=4 freqs=20750 dts=45
.step amp=4.5 freqs=20750 dts=45
.step amp=5 freqs=20750 dts=45
.step amp=1 freqs=21000 dts=45
.step amp=1.5 freqs=21000 dts=45
.step amp=2 freqs=21000 dts=45
.step amp=2.5 freqs=21000 dts=45
.step amp=3 freqs=21000 dts=45
.step amp=3.5 freqs=21000 dts=45
.step amp=4 freqs=21000 dts=45
.step amp=4.5 freqs=21000 dts=45
.step amp=5 freqs=21000 dts=45
.step amp=1 freqs=21250 dts=45
.step amp=1.5 freqs=21250 dts=45
.step amp=2 freqs=21250 dts=45
.step amp=2.5 freqs=21250 dts=45
.step amp=3 freqs=21250 dts=45
.step amp=3.5 freqs=21250 dts=45
.step amp=4 freqs=21250 dts=45
.step amp=4.5 freqs=21250 dts=45
.step amp=5 freqs=21250 dts=45
.step amp=1 freqs=21500 dts=45
.step amp=1.5 freqs=21500 dts=45
.step amp=2 freqs=21500 dts=45
.step amp=2.5 freqs=21500 dts=45
.step amp=3 freqs=21500 dts=45
.step amp=3.5 freqs=21500 dts=45
.step amp=4 freqs=21500 dts=45
.step amp=4.5 freqs=21500 dts=45
.step amp=5 freqs=21500 dts=45
.step amp=1 freqs=21750 dts=45
.step amp=1.5 freqs=21750 dts=45
.step amp=2 freqs=21750 dts=45
.step amp=2.5 freqs=21750 dts=45
.step amp=3 freqs=21750 dts=45
.step amp=3.5 freqs=21750 dts=45
.step amp=4 freqs=21750 dts=45
.step amp=4.5 freqs=21750 dts=45
.step amp=5 freqs=21750 dts=45
.step amp=1 freqs=22000 dts=45
.step amp=1.5 freqs=22000 dts=45
.step amp=2 freqs=22000 dts=45
.step amp=2.5 freqs=22000 dts=45
.step amp=3 freqs=22000 dts=45
.step amp=3.5 freqs=22000 dts=45
.step amp=4 freqs=22000 dts=45
.step amp=4.5 freqs=22000 dts=45
.step amp=5 freqs=22000 dts=45
.step amp=1 freqs=22250 dts=45
.step amp=1.5 freqs=22250 dts=45
.step amp=2 freqs=22250 dts=45
.step amp=2.5 freqs=22250 dts=45
.step amp=3 freqs=22250 dts=45
.step amp=3.5 freqs=22250 dts=45
.step amp=4 freqs=22250 dts=45
.step amp=4.5 freqs=22250 dts=45
.step amp=5 freqs=22250 dts=45
.step amp=1 freqs=22500 dts=45
.step amp=1.5 freqs=22500 dts=45
.step amp=2 freqs=22500 dts=45
.step amp=2.5 freqs=22500 dts=45
.step amp=3 freqs=22500 dts=45
.step amp=3.5 freqs=22500 dts=45
.step amp=4 freqs=22500 dts=45
.step amp=4.5 freqs=22500 dts=45
.step amp=5 freqs=22500 dts=45
.step amp=1 freqs=22750 dts=45
.step amp=1.5 freqs=22750 dts=45
.step amp=2 freqs=22750 dts=45
.step amp=2.5 freqs=22750 dts=45
.step amp=3 freqs=22750 dts=45
.step amp=3.5 freqs=22750 dts=45
.step amp=4 freqs=22750 dts=45
.step amp=4.5 freqs=22750 dts=45
.step amp=5 freqs=22750 dts=45
.step amp=1 freqs=23000 dts=45
.step amp=1.5 freqs=23000 dts=45
.step amp=2 freqs=23000 dts=45
.step amp=2.5 freqs=23000 dts=45
.step amp=3 freqs=23000 dts=45
.step amp=3.5 freqs=23000 dts=45
.step amp=4 freqs=23000 dts=45
.step amp=4.5 freqs=23000 dts=45
.step amp=5 freqs=23000 dts=45
.step amp=1 freqs=23250 dts=45
.step amp=1.5 freqs=23250 dts=45
.step amp=2 freqs=23250 dts=45
.step amp=2.5 freqs=23250 dts=45
.step amp=3 freqs=23250 dts=45
.step amp=3.5 freqs=23250 dts=45
.step amp=4 freqs=23250 dts=45
.step amp=4.5 freqs=23250 dts=45
.step amp=5 freqs=23250 dts=45
.step amp=1 freqs=23500 dts=45
.step amp=1.5 freqs=23500 dts=45
.step amp=2 freqs=23500 dts=45
.step amp=2.5 freqs=23500 dts=45
.step amp=3 freqs=23500 dts=45
.step amp=3.5 freqs=23500 dts=45
.step amp=4 freqs=23500 dts=45
.step amp=4.5 freqs=23500 dts=45
.step amp=5 freqs=23500 dts=45
.step amp=1 freqs=23750 dts=45
.step amp=1.5 freqs=23750 dts=45
.step amp=2 freqs=23750 dts=45
.step amp=2.5 freqs=23750 dts=45
.step amp=3 freqs=23750 dts=45
.step amp=3.5 freqs=23750 dts=45
.step amp=4 freqs=23750 dts=45
.step amp=4.5 freqs=23750 dts=45
.step amp=5 freqs=23750 dts=45
.step amp=1 freqs=24000 dts=45
.step amp=1.5 freqs=24000 dts=45
.step amp=2 freqs=24000 dts=45
.step amp=2.5 freqs=24000 dts=45
.step amp=3 freqs=24000 dts=45
.step amp=3.5 freqs=24000 dts=45
.step amp=4 freqs=24000 dts=45
.step amp=4.5 freqs=24000 dts=45
.step amp=5 freqs=24000 dts=45
.step amp=1 freqs=24250 dts=45
.step amp=1.5 freqs=24250 dts=45
.step amp=2 freqs=24250 dts=45
.step amp=2.5 freqs=24250 dts=45
.step amp=3 freqs=24250 dts=45
.step amp=3.5 freqs=24250 dts=45
.step amp=4 freqs=24250 dts=45
.step amp=4.5 freqs=24250 dts=45
.step amp=5 freqs=24250 dts=45
.step amp=1 freqs=24500 dts=45
.step amp=1.5 freqs=24500 dts=45
.step amp=2 freqs=24500 dts=45
.step amp=2.5 freqs=24500 dts=45
.step amp=3 freqs=24500 dts=45
.step amp=3.5 freqs=24500 dts=45
.step amp=4 freqs=24500 dts=45
.step amp=4.5 freqs=24500 dts=45
.step amp=5 freqs=24500 dts=45
.step amp=1 freqs=24750 dts=45
.step amp=1.5 freqs=24750 dts=45
.step amp=2 freqs=24750 dts=45
.step amp=2.5 freqs=24750 dts=45
.step amp=3 freqs=24750 dts=45
.step amp=3.5 freqs=24750 dts=45
.step amp=4 freqs=24750 dts=45
.step amp=4.5 freqs=24750 dts=45
.step amp=5 freqs=24750 dts=45
.step amp=1 freqs=25000 dts=45
.step amp=1.5 freqs=25000 dts=45
.step amp=2 freqs=25000 dts=45
.step amp=2.5 freqs=25000 dts=45
.step amp=3 freqs=25000 dts=45
.step amp=3.5 freqs=25000 dts=45
.step amp=4 freqs=25000 dts=45
.step amp=4.5 freqs=25000 dts=45
.step amp=5 freqs=25000 dts=45
.step amp=1 freqs=20000 dts=50
.step amp=1.5 freqs=20000 dts=50
.step amp=2 freqs=20000 dts=50
.step amp=2.5 freqs=20000 dts=50
.step amp=3 freqs=20000 dts=50
.step amp=3.5 freqs=20000 dts=50
.step amp=4 freqs=20000 dts=50
.step amp=4.5 freqs=20000 dts=50
.step amp=5 freqs=20000 dts=50
.step amp=1 freqs=20250 dts=50
.step amp=1.5 freqs=20250 dts=50
.step amp=2 freqs=20250 dts=50
.step amp=2.5 freqs=20250 dts=50
.step amp=3 freqs=20250 dts=50
.step amp=3.5 freqs=20250 dts=50
.step amp=4 freqs=20250 dts=50
.step amp=4.5 freqs=20250 dts=50
.step amp=5 freqs=20250 dts=50
.step amp=1 freqs=20500 dts=50
.step amp=1.5 freqs=20500 dts=50
.step amp=2 freqs=20500 dts=50
.step amp=2.5 freqs=20500 dts=50
.step amp=3 freqs=20500 dts=50
.step amp=3.5 freqs=20500 dts=50
.step amp=4 freqs=20500 dts=50
.step amp=4.5 freqs=20500 dts=50
.step amp=5 freqs=20500 dts=50
.step amp=1 freqs=20750 dts=50
.step amp=1.5 freqs=20750 dts=50
.step amp=2 freqs=20750 dts=50
.step amp=2.5 freqs=20750 dts=50
.step amp=3 freqs=20750 dts=50
.step amp=3.5 freqs=20750 dts=50
.step amp=4 freqs=20750 dts=50
.step amp=4.5 freqs=20750 dts=50
.step amp=5 freqs=20750 dts=50
.step amp=1 freqs=21000 dts=50
.step amp=1.5 freqs=21000 dts=50
.step amp=2 freqs=21000 dts=50
.step amp=2.5 freqs=21000 dts=50
.step amp=3 freqs=21000 dts=50
.step amp=3.5 freqs=21000 dts=50
.step amp=4 freqs=21000 dts=50
.step amp=4.5 freqs=21000 dts=50
.step amp=5 freqs=21000 dts=50
.step amp=1 freqs=21250 dts=50
.step amp=1.5 freqs=21250 dts=50
.step amp=2 freqs=21250 dts=50
.step amp=2.5 freqs=21250 dts=50
.step amp=3 freqs=21250 dts=50
.step amp=3.5 freqs=21250 dts=50
.step amp=4 freqs=21250 dts=50
.step amp=4.5 freqs=21250 dts=50
.step amp=5 freqs=21250 dts=50
.step amp=1 freqs=21500 dts=50
.step amp=1.5 freqs=21500 dts=50
.step amp=2 freqs=21500 dts=50
.step amp=2.5 freqs=21500 dts=50
.step amp=3 freqs=21500 dts=50
.step amp=3.5 freqs=21500 dts=50
.step amp=4 freqs=21500 dts=50
.step amp=4.5 freqs=21500 dts=50
.step amp=5 freqs=21500 dts=50
.step amp=1 freqs=21750 dts=50
.step amp=1.5 freqs=21750 dts=50
.step amp=2 freqs=21750 dts=50
.step amp=2.5 freqs=21750 dts=50
.step amp=3 freqs=21750 dts=50
.step amp=3.5 freqs=21750 dts=50
.step amp=4 freqs=21750 dts=50
.step amp=4.5 freqs=21750 dts=50
.step amp=5 freqs=21750 dts=50
.step amp=1 freqs=22000 dts=50
.step amp=1.5 freqs=22000 dts=50
.step amp=2 freqs=22000 dts=50
.step amp=2.5 freqs=22000 dts=50
.step amp=3 freqs=22000 dts=50
.step amp=3.5 freqs=22000 dts=50
.step amp=4 freqs=22000 dts=50
.step amp=4.5 freqs=22000 dts=50
.step amp=5 freqs=22000 dts=50
.step amp=1 freqs=22250 dts=50
.step amp=1.5 freqs=22250 dts=50
.step amp=2 freqs=22250 dts=50
.step amp=2.5 freqs=22250 dts=50
.step amp=3 freqs=22250 dts=50
.step amp=3.5 freqs=22250 dts=50
.step amp=4 freqs=22250 dts=50
.step amp=4.5 freqs=22250 dts=50
.step amp=5 freqs=22250 dts=50
.step amp=1 freqs=22500 dts=50
.step amp=1.5 freqs=22500 dts=50
.step amp=2 freqs=22500 dts=50
.step amp=2.5 freqs=22500 dts=50
.step amp=3 freqs=22500 dts=50
.step amp=3.5 freqs=22500 dts=50
.step amp=4 freqs=22500 dts=50
.step amp=4.5 freqs=22500 dts=50
.step amp=5 freqs=22500 dts=50
.step amp=1 freqs=22750 dts=50
.step amp=1.5 freqs=22750 dts=50
.step amp=2 freqs=22750 dts=50
.step amp=2.5 freqs=22750 dts=50
.step amp=3 freqs=22750 dts=50
.step amp=3.5 freqs=22750 dts=50
.step amp=4 freqs=22750 dts=50
.step amp=4.5 freqs=22750 dts=50
.step amp=5 freqs=22750 dts=50
.step amp=1 freqs=23000 dts=50
.step amp=1.5 freqs=23000 dts=50
.step amp=2 freqs=23000 dts=50
.step amp=2.5 freqs=23000 dts=50
.step amp=3 freqs=23000 dts=50
.step amp=3.5 freqs=23000 dts=50
.step amp=4 freqs=23000 dts=50
.step amp=4.5 freqs=23000 dts=50
.step amp=5 freqs=23000 dts=50
.step amp=1 freqs=23250 dts=50
.step amp=1.5 freqs=23250 dts=50
.step amp=2 freqs=23250 dts=50
.step amp=2.5 freqs=23250 dts=50
.step amp=3 freqs=23250 dts=50
.step amp=3.5 freqs=23250 dts=50
.step amp=4 freqs=23250 dts=50
.step amp=4.5 freqs=23250 dts=50
.step amp=5 freqs=23250 dts=50
.step amp=1 freqs=23500 dts=50
.step amp=1.5 freqs=23500 dts=50
.step amp=2 freqs=23500 dts=50
.step amp=2.5 freqs=23500 dts=50
.step amp=3 freqs=23500 dts=50
.step amp=3.5 freqs=23500 dts=50
.step amp=4 freqs=23500 dts=50
.step amp=4.5 freqs=23500 dts=50
.step amp=5 freqs=23500 dts=50
.step amp=1 freqs=23750 dts=50
.step amp=1.5 freqs=23750 dts=50
.step amp=2 freqs=23750 dts=50
.step amp=2.5 freqs=23750 dts=50
.step amp=3 freqs=23750 dts=50
.step amp=3.5 freqs=23750 dts=50
.step amp=4 freqs=23750 dts=50
.step amp=4.5 freqs=23750 dts=50
.step amp=5 freqs=23750 dts=50
.step amp=1 freqs=24000 dts=50
.step amp=1.5 freqs=24000 dts=50
.step amp=2 freqs=24000 dts=50
.step amp=2.5 freqs=24000 dts=50
.step amp=3 freqs=24000 dts=50
.step amp=3.5 freqs=24000 dts=50
.step amp=4 freqs=24000 dts=50
.step amp=4.5 freqs=24000 dts=50
.step amp=5 freqs=24000 dts=50
.step amp=1 freqs=24250 dts=50
.step amp=1.5 freqs=24250 dts=50
.step amp=2 freqs=24250 dts=50
.step amp=2.5 freqs=24250 dts=50
.step amp=3 freqs=24250 dts=50
.step amp=3.5 freqs=24250 dts=50
.step amp=4 freqs=24250 dts=50
.step amp=4.5 freqs=24250 dts=50
.step amp=5 freqs=24250 dts=50
.step amp=1 freqs=24500 dts=50
.step amp=1.5 freqs=24500 dts=50
.step amp=2 freqs=24500 dts=50
.step amp=2.5 freqs=24500 dts=50
.step amp=3 freqs=24500 dts=50
.step amp=3.5 freqs=24500 dts=50
.step amp=4 freqs=24500 dts=50
.step amp=4.5 freqs=24500 dts=50
.step amp=5 freqs=24500 dts=50
.step amp=1 freqs=24750 dts=50
.step amp=1.5 freqs=24750 dts=50
.step amp=2 freqs=24750 dts=50
.step amp=2.5 freqs=24750 dts=50
.step amp=3 freqs=24750 dts=50
.step amp=3.5 freqs=24750 dts=50
.step amp=4 freqs=24750 dts=50
.step amp=4.5 freqs=24750 dts=50
.step amp=5 freqs=24750 dts=50
.step amp=1 freqs=25000 dts=50
.step amp=1.5 freqs=25000 dts=50
.step amp=2 freqs=25000 dts=50
.step amp=2.5 freqs=25000 dts=50
.step amp=3 freqs=25000 dts=50
.step amp=3.5 freqs=25000 dts=50
.step amp=4 freqs=25000 dts=50
.step amp=4.5 freqs=25000 dts=50
.step amp=5 freqs=25000 dts=50

Date: Sat Apr 04 19:30:56 2020
Total elapsed time: 7777.365 seconds.

tnom = 27
temp = 27
method = modified trap
totiter = 105419
traniter = 105419
tranpoints = 47056
accept = 40716
rejected = 6340
matrix size = 353
fillins = 987
solver = Normal
Thread vector: 27.3/19.4[3] 8.5/6.8[3] 6.7/4.4[3] 2.2/3.8[1]  2592/500
Matrix Compiler1: 82.92 KB object code size  15.1/8.0/[3.8]
Matrix Compiler2: 48.88 KB object code size  5.4/5.6/[2.9]

