Circuit: * C:\Users\Guido\Documents\GitHub\ASSDbueno\TP1\Ejercicio-6\Spice\FAA+LL+FR.asc

WARNING: Less than two connections to node N002.  This node is used by V5.
WARNING: Less than two connections to node N003.  This node is used by V10.
Per .tran options, skipping operating point for transient analysis.
.step amp=1 freqs=20000 dts=5
.step amp=1.5 freqs=20000 dts=5
.step amp=2 freqs=20000 dts=5
.step amp=2.5 freqs=20000 dts=5
.step amp=3 freqs=20000 dts=5
.step amp=3.5 freqs=20000 dts=5
.step amp=4 freqs=20000 dts=5
.step amp=4.5 freqs=20000 dts=5
.step amp=5 freqs=20000 dts=5
.step amp=1 freqs=20250 dts=5
.step amp=1.5 freqs=20250 dts=5
.step amp=2 freqs=20250 dts=5
.step amp=2.5 freqs=20250 dts=5
.step amp=3 freqs=20250 dts=5
.step amp=3.5 freqs=20250 dts=5
.step amp=4 freqs=20250 dts=5
.step amp=4.5 freqs=20250 dts=5
.step amp=5 freqs=20250 dts=5
.step amp=1 freqs=20500 dts=5
.step amp=1.5 freqs=20500 dts=5
.step amp=2 freqs=20500 dts=5
.step amp=2.5 freqs=20500 dts=5
.step amp=3 freqs=20500 dts=5
.step amp=3.5 freqs=20500 dts=5
.step amp=4 freqs=20500 dts=5
.step amp=4.5 freqs=20500 dts=5
.step amp=5 freqs=20500 dts=5
.step amp=1 freqs=20750 dts=5
.step amp=1.5 freqs=20750 dts=5
.step amp=2 freqs=20750 dts=5
.step amp=2.5 freqs=20750 dts=5
.step amp=3 freqs=20750 dts=5
.step amp=3.5 freqs=20750 dts=5
.step amp=4 freqs=20750 dts=5
.step amp=4.5 freqs=20750 dts=5
.step amp=5 freqs=20750 dts=5
.step amp=1 freqs=21000 dts=5
.step amp=1.5 freqs=21000 dts=5
.step amp=2 freqs=21000 dts=5
.step amp=2.5 freqs=21000 dts=5
.step amp=3 freqs=21000 dts=5
.step amp=3.5 freqs=21000 dts=5
.step amp=4 freqs=21000 dts=5
.step amp=4.5 freqs=21000 dts=5
.step amp=5 freqs=21000 dts=5
.step amp=1 freqs=21250 dts=5
.step amp=1.5 freqs=21250 dts=5
.step amp=2 freqs=21250 dts=5
.step amp=2.5 freqs=21250 dts=5
.step amp=3 freqs=21250 dts=5
.step amp=3.5 freqs=21250 dts=5
.step amp=4 freqs=21250 dts=5
.step amp=4.5 freqs=21250 dts=5
.step amp=5 freqs=21250 dts=5
.step amp=1 freqs=21500 dts=5
.step amp=1.5 freqs=21500 dts=5
.step amp=2 freqs=21500 dts=5
.step amp=2.5 freqs=21500 dts=5
.step amp=3 freqs=21500 dts=5
.step amp=3.5 freqs=21500 dts=5
.step amp=4 freqs=21500 dts=5
.step amp=4.5 freqs=21500 dts=5
.step amp=5 freqs=21500 dts=5
.step amp=1 freqs=21750 dts=5
.step amp=1.5 freqs=21750 dts=5
.step amp=2 freqs=21750 dts=5
.step amp=2.5 freqs=21750 dts=5
.step amp=3 freqs=21750 dts=5
.step amp=3.5 freqs=21750 dts=5
.step amp=4 freqs=21750 dts=5
.step amp=4.5 freqs=21750 dts=5
.step amp=5 freqs=21750 dts=5
.step amp=1 freqs=22000 dts=5
.step amp=1.5 freqs=22000 dts=5
.step amp=2 freqs=22000 dts=5
.step amp=2.5 freqs=22000 dts=5
.step amp=3 freqs=22000 dts=5
.step amp=3.5 freqs=22000 dts=5
.step amp=4 freqs=22000 dts=5
.step amp=4.5 freqs=22000 dts=5
.step amp=5 freqs=22000 dts=5
.step amp=1 freqs=22250 dts=5
.step amp=1.5 freqs=22250 dts=5
.step amp=2 freqs=22250 dts=5
.step amp=2.5 freqs=22250 dts=5
.step amp=3 freqs=22250 dts=5
.step amp=3.5 freqs=22250 dts=5
.step amp=4 freqs=22250 dts=5
.step amp=4.5 freqs=22250 dts=5
.step amp=5 freqs=22250 dts=5
.step amp=1 freqs=22500 dts=5
.step amp=1.5 freqs=22500 dts=5
.step amp=2 freqs=22500 dts=5
.step amp=2.5 freqs=22500 dts=5
.step amp=3 freqs=22500 dts=5
.step amp=3.5 freqs=22500 dts=5
.step amp=4 freqs=22500 dts=5
.step amp=4.5 freqs=22500 dts=5
.step amp=5 freqs=22500 dts=5
.step amp=1 freqs=22750 dts=5
.step amp=1.5 freqs=22750 dts=5
.step amp=2 freqs=22750 dts=5
.step amp=2.5 freqs=22750 dts=5
.step amp=3 freqs=22750 dts=5
.step amp=3.5 freqs=22750 dts=5
.step amp=4 freqs=22750 dts=5
.step amp=4.5 freqs=22750 dts=5
.step amp=5 freqs=22750 dts=5
.step amp=1 freqs=23000 dts=5
.step amp=1.5 freqs=23000 dts=5
.step amp=2 freqs=23000 dts=5
.step amp=2.5 freqs=23000 dts=5
.step amp=3 freqs=23000 dts=5
.step amp=3.5 freqs=23000 dts=5
.step amp=4 freqs=23000 dts=5
.step amp=4.5 freqs=23000 dts=5
.step amp=5 freqs=23000 dts=5
.step amp=1 freqs=23250 dts=5
.step amp=1.5 freqs=23250 dts=5
.step amp=2 freqs=23250 dts=5
.step amp=2.5 freqs=23250 dts=5
.step amp=3 freqs=23250 dts=5
.step amp=3.5 freqs=23250 dts=5
.step amp=4 freqs=23250 dts=5
.step amp=4.5 freqs=23250 dts=5
.step amp=5 freqs=23250 dts=5
.step amp=1 freqs=23500 dts=5
.step amp=1.5 freqs=23500 dts=5
.step amp=2 freqs=23500 dts=5
.step amp=2.5 freqs=23500 dts=5
.step amp=3 freqs=23500 dts=5
.step amp=3.5 freqs=23500 dts=5
.step amp=4 freqs=23500 dts=5
.step amp=4.5 freqs=23500 dts=5
.step amp=5 freqs=23500 dts=5
.step amp=1 freqs=23750 dts=5
.step amp=1.5 freqs=23750 dts=5
.step amp=2 freqs=23750 dts=5
.step amp=2.5 freqs=23750 dts=5
.step amp=3 freqs=23750 dts=5
.step amp=3.5 freqs=23750 dts=5
.step amp=4 freqs=23750 dts=5
.step amp=4.5 freqs=23750 dts=5
.step amp=5 freqs=23750 dts=5
.step amp=1 freqs=24000 dts=5
.step amp=1.5 freqs=24000 dts=5
.step amp=2 freqs=24000 dts=5
.step amp=2.5 freqs=24000 dts=5
.step amp=3 freqs=24000 dts=5
.step amp=3.5 freqs=24000 dts=5
.step amp=4 freqs=24000 dts=5
.step amp=4.5 freqs=24000 dts=5
.step amp=5 freqs=24000 dts=5
.step amp=1 freqs=24250 dts=5
.step amp=1.5 freqs=24250 dts=5
.step amp=2 freqs=24250 dts=5
.step amp=2.5 freqs=24250 dts=5
.step amp=3 freqs=24250 dts=5
.step amp=3.5 freqs=24250 dts=5
.step amp=4 freqs=24250 dts=5
.step amp=4.5 freqs=24250 dts=5
.step amp=5 freqs=24250 dts=5
.step amp=1 freqs=24500 dts=5
.step amp=1.5 freqs=24500 dts=5
.step amp=2 freqs=24500 dts=5
.step amp=2.5 freqs=24500 dts=5
.step amp=3 freqs=24500 dts=5
.step amp=3.5 freqs=24500 dts=5
.step amp=4 freqs=24500 dts=5
.step amp=4.5 freqs=24500 dts=5
.step amp=5 freqs=24500 dts=5
.step amp=1 freqs=24750 dts=5
.step amp=1.5 freqs=24750 dts=5
.step amp=2 freqs=24750 dts=5
.step amp=2.5 freqs=24750 dts=5
.step amp=3 freqs=24750 dts=5
.step amp=3.5 freqs=24750 dts=5
.step amp=4 freqs=24750 dts=5
.step amp=4.5 freqs=24750 dts=5
.step amp=5 freqs=24750 dts=5
.step amp=1 freqs=25000 dts=5
.step amp=1.5 freqs=25000 dts=5
.step amp=2 freqs=25000 dts=5
.step amp=2.5 freqs=25000 dts=5
.step amp=3 freqs=25000 dts=5
.step amp=3.5 freqs=25000 dts=5
.step amp=4 freqs=25000 dts=5
.step amp=4.5 freqs=25000 dts=5
.step amp=5 freqs=25000 dts=5
.step amp=1 freqs=20000 dts=10
.step amp=1.5 freqs=20000 dts=10
.step amp=2 freqs=20000 dts=10
.step amp=2.5 freqs=20000 dts=10
.step amp=3 freqs=20000 dts=10
.step amp=3.5 freqs=20000 dts=10
.step amp=4 freqs=20000 dts=10
.step amp=4.5 freqs=20000 dts=10
.step amp=5 freqs=20000 dts=10
.step amp=1 freqs=20250 dts=10
.step amp=1.5 freqs=20250 dts=10
.step amp=2 freqs=20250 dts=10
.step amp=2.5 freqs=20250 dts=10
.step amp=3 freqs=20250 dts=10
.step amp=3.5 freqs=20250 dts=10
.step amp=4 freqs=20250 dts=10
.step amp=4.5 freqs=20250 dts=10
.step amp=5 freqs=20250 dts=10
.step amp=1 freqs=20500 dts=10
.step amp=1.5 freqs=20500 dts=10
.step amp=2 freqs=20500 dts=10
.step amp=2.5 freqs=20500 dts=10
.step amp=3 freqs=20500 dts=10
.step amp=3.5 freqs=20500 dts=10
.step amp=4 freqs=20500 dts=10
.step amp=4.5 freqs=20500 dts=10
.step amp=5 freqs=20500 dts=10
.step amp=1 freqs=20750 dts=10
.step amp=1.5 freqs=20750 dts=10
.step amp=2 freqs=20750 dts=10
.step amp=2.5 freqs=20750 dts=10
.step amp=3 freqs=20750 dts=10
.step amp=3.5 freqs=20750 dts=10
.step amp=4 freqs=20750 dts=10
.step amp=4.5 freqs=20750 dts=10
.step amp=5 freqs=20750 dts=10
.step amp=1 freqs=21000 dts=10
.step amp=1.5 freqs=21000 dts=10
.step amp=2 freqs=21000 dts=10
.step amp=2.5 freqs=21000 dts=10
.step amp=3 freqs=21000 dts=10
.step amp=3.5 freqs=21000 dts=10
.step amp=4 freqs=21000 dts=10
.step amp=4.5 freqs=21000 dts=10
.step amp=5 freqs=21000 dts=10
.step amp=1 freqs=21250 dts=10
.step amp=1.5 freqs=21250 dts=10
.step amp=2 freqs=21250 dts=10
.step amp=2.5 freqs=21250 dts=10
.step amp=3 freqs=21250 dts=10
.step amp=3.5 freqs=21250 dts=10
.step amp=4 freqs=21250 dts=10
.step amp=4.5 freqs=21250 dts=10
.step amp=5 freqs=21250 dts=10
.step amp=1 freqs=21500 dts=10
.step amp=1.5 freqs=21500 dts=10
.step amp=2 freqs=21500 dts=10
.step amp=2.5 freqs=21500 dts=10
.step amp=3 freqs=21500 dts=10
.step amp=3.5 freqs=21500 dts=10
.step amp=4 freqs=21500 dts=10
.step amp=4.5 freqs=21500 dts=10
.step amp=5 freqs=21500 dts=10
.step amp=1 freqs=21750 dts=10
.step amp=1.5 freqs=21750 dts=10
.step amp=2 freqs=21750 dts=10
.step amp=2.5 freqs=21750 dts=10
.step amp=3 freqs=21750 dts=10
.step amp=3.5 freqs=21750 dts=10
.step amp=4 freqs=21750 dts=10
.step amp=4.5 freqs=21750 dts=10
.step amp=5 freqs=21750 dts=10
.step amp=1 freqs=22000 dts=10
.step amp=1.5 freqs=22000 dts=10
.step amp=2 freqs=22000 dts=10
.step amp=2.5 freqs=22000 dts=10
.step amp=3 freqs=22000 dts=10
.step amp=3.5 freqs=22000 dts=10
.step amp=4 freqs=22000 dts=10
.step amp=4.5 freqs=22000 dts=10
.step amp=5 freqs=22000 dts=10
.step amp=1 freqs=22250 dts=10
.step amp=1.5 freqs=22250 dts=10
.step amp=2 freqs=22250 dts=10
.step amp=2.5 freqs=22250 dts=10
.step amp=3 freqs=22250 dts=10
.step amp=3.5 freqs=22250 dts=10
.step amp=4 freqs=22250 dts=10
.step amp=4.5 freqs=22250 dts=10
.step amp=5 freqs=22250 dts=10
.step amp=1 freqs=22500 dts=10
.step amp=1.5 freqs=22500 dts=10
.step amp=2 freqs=22500 dts=10
.step amp=2.5 freqs=22500 dts=10
.step amp=3 freqs=22500 dts=10
.step amp=3.5 freqs=22500 dts=10
.step amp=4 freqs=22500 dts=10
.step amp=4.5 freqs=22500 dts=10
.step amp=5 freqs=22500 dts=10
.step amp=1 freqs=22750 dts=10
.step amp=1.5 freqs=22750 dts=10
.step amp=2 freqs=22750 dts=10
.step amp=2.5 freqs=22750 dts=10
.step amp=3 freqs=22750 dts=10
.step amp=3.5 freqs=22750 dts=10
.step amp=4 freqs=22750 dts=10
.step amp=4.5 freqs=22750 dts=10
.step amp=5 freqs=22750 dts=10
.step amp=1 freqs=23000 dts=10
.step amp=1.5 freqs=23000 dts=10
.step amp=2 freqs=23000 dts=10
.step amp=2.5 freqs=23000 dts=10
.step amp=3 freqs=23000 dts=10
.step amp=3.5 freqs=23000 dts=10
.step amp=4 freqs=23000 dts=10
.step amp=4.5 freqs=23000 dts=10
.step amp=5 freqs=23000 dts=10
.step amp=1 freqs=23250 dts=10
.step amp=1.5 freqs=23250 dts=10
.step amp=2 freqs=23250 dts=10
.step amp=2.5 freqs=23250 dts=10
.step amp=3 freqs=23250 dts=10
.step amp=3.5 freqs=23250 dts=10
.step amp=4 freqs=23250 dts=10
.step amp=4.5 freqs=23250 dts=10
.step amp=5 freqs=23250 dts=10
.step amp=1 freqs=23500 dts=10
.step amp=1.5 freqs=23500 dts=10
.step amp=2 freqs=23500 dts=10
.step amp=2.5 freqs=23500 dts=10
.step amp=3 freqs=23500 dts=10
.step amp=3.5 freqs=23500 dts=10
.step amp=4 freqs=23500 dts=10
.step amp=4.5 freqs=23500 dts=10
.step amp=5 freqs=23500 dts=10
.step amp=1 freqs=23750 dts=10
.step amp=1.5 freqs=23750 dts=10
.step amp=2 freqs=23750 dts=10
.step amp=2.5 freqs=23750 dts=10
.step amp=3 freqs=23750 dts=10
.step amp=3.5 freqs=23750 dts=10
.step amp=4 freqs=23750 dts=10
.step amp=4.5 freqs=23750 dts=10
.step amp=5 freqs=23750 dts=10
.step amp=1 freqs=24000 dts=10
.step amp=1.5 freqs=24000 dts=10
.step amp=2 freqs=24000 dts=10
.step amp=2.5 freqs=24000 dts=10
.step amp=3 freqs=24000 dts=10
.step amp=3.5 freqs=24000 dts=10
.step amp=4 freqs=24000 dts=10
.step amp=4.5 freqs=24000 dts=10
.step amp=5 freqs=24000 dts=10
.step amp=1 freqs=24250 dts=10
.step amp=1.5 freqs=24250 dts=10
.step amp=2 freqs=24250 dts=10
.step amp=2.5 freqs=24250 dts=10
.step amp=3 freqs=24250 dts=10
.step amp=3.5 freqs=24250 dts=10
.step amp=4 freqs=24250 dts=10
.step amp=4.5 freqs=24250 dts=10
.step amp=5 freqs=24250 dts=10
.step amp=1 freqs=24500 dts=10
.step amp=1.5 freqs=24500 dts=10
.step amp=2 freqs=24500 dts=10
.step amp=2.5 freqs=24500 dts=10
.step amp=3 freqs=24500 dts=10
.step amp=3.5 freqs=24500 dts=10
.step amp=4 freqs=24500 dts=10
.step amp=4.5 freqs=24500 dts=10
.step amp=5 freqs=24500 dts=10
.step amp=1 freqs=24750 dts=10
.step amp=1.5 freqs=24750 dts=10
.step amp=2 freqs=24750 dts=10
.step amp=2.5 freqs=24750 dts=10
.step amp=3 freqs=24750 dts=10
.step amp=3.5 freqs=24750 dts=10
.step amp=4 freqs=24750 dts=10
.step amp=4.5 freqs=24750 dts=10
.step amp=5 freqs=24750 dts=10
.step amp=1 freqs=25000 dts=10
.step amp=1.5 freqs=25000 dts=10
.step amp=2 freqs=25000 dts=10
.step amp=2.5 freqs=25000 dts=10
.step amp=3 freqs=25000 dts=10
.step amp=3.5 freqs=25000 dts=10
.step amp=4 freqs=25000 dts=10
.step amp=4.5 freqs=25000 dts=10
.step amp=5 freqs=25000 dts=10
.step amp=1 freqs=20000 dts=15
.step amp=1.5 freqs=20000 dts=15
.step amp=2 freqs=20000 dts=15
.step amp=2.5 freqs=20000 dts=15
.step amp=3 freqs=20000 dts=15
.step amp=3.5 freqs=20000 dts=15
.step amp=4 freqs=20000 dts=15
.step amp=4.5 freqs=20000 dts=15
.step amp=5 freqs=20000 dts=15
.step amp=1 freqs=20250 dts=15
.step amp=1.5 freqs=20250 dts=15
.step amp=2 freqs=20250 dts=15
.step amp=2.5 freqs=20250 dts=15
.step amp=3 freqs=20250 dts=15
.step amp=3.5 freqs=20250 dts=15
.step amp=4 freqs=20250 dts=15
.step amp=4.5 freqs=20250 dts=15
.step amp=5 freqs=20250 dts=15
.step amp=1 freqs=20500 dts=15
.step amp=1.5 freqs=20500 dts=15
.step amp=2 freqs=20500 dts=15
.step amp=2.5 freqs=20500 dts=15
.step amp=3 freqs=20500 dts=15
.step amp=3.5 freqs=20500 dts=15
.step amp=4 freqs=20500 dts=15
.step amp=4.5 freqs=20500 dts=15
.step amp=5 freqs=20500 dts=15
.step amp=1 freqs=20750 dts=15
.step amp=1.5 freqs=20750 dts=15
.step amp=2 freqs=20750 dts=15
.step amp=2.5 freqs=20750 dts=15
.step amp=3 freqs=20750 dts=15
.step amp=3.5 freqs=20750 dts=15
.step amp=4 freqs=20750 dts=15
.step amp=4.5 freqs=20750 dts=15
.step amp=5 freqs=20750 dts=15
.step amp=1 freqs=21000 dts=15
.step amp=1.5 freqs=21000 dts=15
.step amp=2 freqs=21000 dts=15
.step amp=2.5 freqs=21000 dts=15
.step amp=3 freqs=21000 dts=15
.step amp=3.5 freqs=21000 dts=15
.step amp=4 freqs=21000 dts=15
.step amp=4.5 freqs=21000 dts=15
.step amp=5 freqs=21000 dts=15
.step amp=1 freqs=21250 dts=15
.step amp=1.5 freqs=21250 dts=15
.step amp=2 freqs=21250 dts=15
.step amp=2.5 freqs=21250 dts=15
.step amp=3 freqs=21250 dts=15
.step amp=3.5 freqs=21250 dts=15
.step amp=4 freqs=21250 dts=15
.step amp=4.5 freqs=21250 dts=15
.step amp=5 freqs=21250 dts=15
.step amp=1 freqs=21500 dts=15
.step amp=1.5 freqs=21500 dts=15
.step amp=2 freqs=21500 dts=15
.step amp=2.5 freqs=21500 dts=15
.step amp=3 freqs=21500 dts=15
.step amp=3.5 freqs=21500 dts=15
.step amp=4 freqs=21500 dts=15
.step amp=4.5 freqs=21500 dts=15
.step amp=5 freqs=21500 dts=15
.step amp=1 freqs=21750 dts=15
.step amp=1.5 freqs=21750 dts=15
.step amp=2 freqs=21750 dts=15
.step amp=2.5 freqs=21750 dts=15
.step amp=3 freqs=21750 dts=15
.step amp=3.5 freqs=21750 dts=15
.step amp=4 freqs=21750 dts=15
.step amp=4.5 freqs=21750 dts=15
.step amp=5 freqs=21750 dts=15
.step amp=1 freqs=22000 dts=15
.step amp=1.5 freqs=22000 dts=15
.step amp=2 freqs=22000 dts=15
.step amp=2.5 freqs=22000 dts=15
.step amp=3 freqs=22000 dts=15
.step amp=3.5 freqs=22000 dts=15
.step amp=4 freqs=22000 dts=15
.step amp=4.5 freqs=22000 dts=15
.step amp=5 freqs=22000 dts=15
.step amp=1 freqs=22250 dts=15
.step amp=1.5 freqs=22250 dts=15
.step amp=2 freqs=22250 dts=15
.step amp=2.5 freqs=22250 dts=15
.step amp=3 freqs=22250 dts=15
.step amp=3.5 freqs=22250 dts=15
.step amp=4 freqs=22250 dts=15
.step amp=4.5 freqs=22250 dts=15
.step amp=5 freqs=22250 dts=15
.step amp=1 freqs=22500 dts=15
.step amp=1.5 freqs=22500 dts=15
.step amp=2 freqs=22500 dts=15
.step amp=2.5 freqs=22500 dts=15
.step amp=3 freqs=22500 dts=15
.step amp=3.5 freqs=22500 dts=15
.step amp=4 freqs=22500 dts=15
.step amp=4.5 freqs=22500 dts=15
.step amp=5 freqs=22500 dts=15
.step amp=1 freqs=22750 dts=15
.step amp=1.5 freqs=22750 dts=15
.step amp=2 freqs=22750 dts=15
.step amp=2.5 freqs=22750 dts=15
.step amp=3 freqs=22750 dts=15
.step amp=3.5 freqs=22750 dts=15
.step amp=4 freqs=22750 dts=15
.step amp=4.5 freqs=22750 dts=15
.step amp=5 freqs=22750 dts=15
.step amp=1 freqs=23000 dts=15
.step amp=1.5 freqs=23000 dts=15
.step amp=2 freqs=23000 dts=15
.step amp=2.5 freqs=23000 dts=15
.step amp=3 freqs=23000 dts=15
.step amp=3.5 freqs=23000 dts=15
.step amp=4 freqs=23000 dts=15
.step amp=4.5 freqs=23000 dts=15
.step amp=5 freqs=23000 dts=15
.step amp=1 freqs=23250 dts=15
.step amp=1.5 freqs=23250 dts=15
.step amp=2 freqs=23250 dts=15
.step amp=2.5 freqs=23250 dts=15
.step amp=3 freqs=23250 dts=15
.step amp=3.5 freqs=23250 dts=15
.step amp=4 freqs=23250 dts=15
.step amp=4.5 freqs=23250 dts=15
.step amp=5 freqs=23250 dts=15
.step amp=1 freqs=23500 dts=15
.step amp=1.5 freqs=23500 dts=15
.step amp=2 freqs=23500 dts=15
.step amp=2.5 freqs=23500 dts=15
.step amp=3 freqs=23500 dts=15
.step amp=3.5 freqs=23500 dts=15
.step amp=4 freqs=23500 dts=15
.step amp=4.5 freqs=23500 dts=15
.step amp=5 freqs=23500 dts=15
.step amp=1 freqs=23750 dts=15
.step amp=1.5 freqs=23750 dts=15
.step amp=2 freqs=23750 dts=15
.step amp=2.5 freqs=23750 dts=15
.step amp=3 freqs=23750 dts=15
.step amp=3.5 freqs=23750 dts=15
.step amp=4 freqs=23750 dts=15
.step amp=4.5 freqs=23750 dts=15
.step amp=5 freqs=23750 dts=15
.step amp=1 freqs=24000 dts=15
.step amp=1.5 freqs=24000 dts=15
.step amp=2 freqs=24000 dts=15
.step amp=2.5 freqs=24000 dts=15
.step amp=3 freqs=24000 dts=15
.step amp=3.5 freqs=24000 dts=15
.step amp=4 freqs=24000 dts=15
.step amp=4.5 freqs=24000 dts=15
.step amp=5 freqs=24000 dts=15
.step amp=1 freqs=24250 dts=15
.step amp=1.5 freqs=24250 dts=15
.step amp=2 freqs=24250 dts=15
.step amp=2.5 freqs=24250 dts=15
.step amp=3 freqs=24250 dts=15
.step amp=3.5 freqs=24250 dts=15
.step amp=4 freqs=24250 dts=15
.step amp=4.5 freqs=24250 dts=15
.step amp=5 freqs=24250 dts=15
.step amp=1 freqs=24500 dts=15
.step amp=1.5 freqs=24500 dts=15
.step amp=2 freqs=24500 dts=15
.step amp=2.5 freqs=24500 dts=15
.step amp=3 freqs=24500 dts=15
.step amp=3.5 freqs=24500 dts=15
.step amp=4 freqs=24500 dts=15
.step amp=4.5 freqs=24500 dts=15
.step amp=5 freqs=24500 dts=15
.step amp=1 freqs=24750 dts=15
.step amp=1.5 freqs=24750 dts=15
.step amp=2 freqs=24750 dts=15
.step amp=2.5 freqs=24750 dts=15
.step amp=3 freqs=24750 dts=15
.step amp=3.5 freqs=24750 dts=15
.step amp=4 freqs=24750 dts=15
.step amp=4.5 freqs=24750 dts=15
.step amp=5 freqs=24750 dts=15
.step amp=1 freqs=25000 dts=15
.step amp=1.5 freqs=25000 dts=15
.step amp=2 freqs=25000 dts=15
.step amp=2.5 freqs=25000 dts=15
.step amp=3 freqs=25000 dts=15
.step amp=3.5 freqs=25000 dts=15
.step amp=4 freqs=25000 dts=15
.step amp=4.5 freqs=25000 dts=15
.step amp=5 freqs=25000 dts=15
.step amp=1 freqs=20000 dts=20
.step amp=1.5 freqs=20000 dts=20
.step amp=2 freqs=20000 dts=20
.step amp=2.5 freqs=20000 dts=20
.step amp=3 freqs=20000 dts=20
.step amp=3.5 freqs=20000 dts=20
.step amp=4 freqs=20000 dts=20
.step amp=4.5 freqs=20000 dts=20
.step amp=5 freqs=20000 dts=20
.step amp=1 freqs=20250 dts=20
.step amp=1.5 freqs=20250 dts=20
.step amp=2 freqs=20250 dts=20
.step amp=2.5 freqs=20250 dts=20
.step amp=3 freqs=20250 dts=20
.step amp=3.5 freqs=20250 dts=20
.step amp=4 freqs=20250 dts=20
.step amp=4.5 freqs=20250 dts=20
.step amp=5 freqs=20250 dts=20
.step amp=1 freqs=20500 dts=20
.step amp=1.5 freqs=20500 dts=20
.step amp=2 freqs=20500 dts=20
.step amp=2.5 freqs=20500 dts=20
.step amp=3 freqs=20500 dts=20
.step amp=3.5 freqs=20500 dts=20
.step amp=4 freqs=20500 dts=20
.step amp=4.5 freqs=20500 dts=20
.step amp=5 freqs=20500 dts=20
.step amp=1 freqs=20750 dts=20
.step amp=1.5 freqs=20750 dts=20
.step amp=2 freqs=20750 dts=20
.step amp=2.5 freqs=20750 dts=20
.step amp=3 freqs=20750 dts=20
.step amp=3.5 freqs=20750 dts=20
.step amp=4 freqs=20750 dts=20
.step amp=4.5 freqs=20750 dts=20
.step amp=5 freqs=20750 dts=20
.step amp=1 freqs=21000 dts=20
.step amp=1.5 freqs=21000 dts=20
.step amp=2 freqs=21000 dts=20
.step amp=2.5 freqs=21000 dts=20
.step amp=3 freqs=21000 dts=20
.step amp=3.5 freqs=21000 dts=20
.step amp=4 freqs=21000 dts=20
.step amp=4.5 freqs=21000 dts=20
.step amp=5 freqs=21000 dts=20
.step amp=1 freqs=21250 dts=20
.step amp=1.5 freqs=21250 dts=20
.step amp=2 freqs=21250 dts=20
.step amp=2.5 freqs=21250 dts=20
.step amp=3 freqs=21250 dts=20
.step amp=3.5 freqs=21250 dts=20
.step amp=4 freqs=21250 dts=20
.step amp=4.5 freqs=21250 dts=20
.step amp=5 freqs=21250 dts=20
.step amp=1 freqs=21500 dts=20
.step amp=1.5 freqs=21500 dts=20
.step amp=2 freqs=21500 dts=20
.step amp=2.5 freqs=21500 dts=20
.step amp=3 freqs=21500 dts=20
.step amp=3.5 freqs=21500 dts=20
.step amp=4 freqs=21500 dts=20
.step amp=4.5 freqs=21500 dts=20
.step amp=5 freqs=21500 dts=20
.step amp=1 freqs=21750 dts=20
.step amp=1.5 freqs=21750 dts=20
.step amp=2 freqs=21750 dts=20
.step amp=2.5 freqs=21750 dts=20
.step amp=3 freqs=21750 dts=20
.step amp=3.5 freqs=21750 dts=20
.step amp=4 freqs=21750 dts=20
.step amp=4.5 freqs=21750 dts=20
.step amp=5 freqs=21750 dts=20
.step amp=1 freqs=22000 dts=20
.step amp=1.5 freqs=22000 dts=20
.step amp=2 freqs=22000 dts=20
.step amp=2.5 freqs=22000 dts=20
.step amp=3 freqs=22000 dts=20
.step amp=3.5 freqs=22000 dts=20
.step amp=4 freqs=22000 dts=20
.step amp=4.5 freqs=22000 dts=20
.step amp=5 freqs=22000 dts=20
.step amp=1 freqs=22250 dts=20
.step amp=1.5 freqs=22250 dts=20
.step amp=2 freqs=22250 dts=20
.step amp=2.5 freqs=22250 dts=20
.step amp=3 freqs=22250 dts=20
.step amp=3.5 freqs=22250 dts=20
.step amp=4 freqs=22250 dts=20
.step amp=4.5 freqs=22250 dts=20
.step amp=5 freqs=22250 dts=20
.step amp=1 freqs=22500 dts=20
.step amp=1.5 freqs=22500 dts=20
.step amp=2 freqs=22500 dts=20
.step amp=2.5 freqs=22500 dts=20
.step amp=3 freqs=22500 dts=20
.step amp=3.5 freqs=22500 dts=20
.step amp=4 freqs=22500 dts=20
.step amp=4.5 freqs=22500 dts=20
.step amp=5 freqs=22500 dts=20
.step amp=1 freqs=22750 dts=20
.step amp=1.5 freqs=22750 dts=20
.step amp=2 freqs=22750 dts=20
.step amp=2.5 freqs=22750 dts=20
.step amp=3 freqs=22750 dts=20
.step amp=3.5 freqs=22750 dts=20
.step amp=4 freqs=22750 dts=20
.step amp=4.5 freqs=22750 dts=20
.step amp=5 freqs=22750 dts=20
.step amp=1 freqs=23000 dts=20
.step amp=1.5 freqs=23000 dts=20
.step amp=2 freqs=23000 dts=20
.step amp=2.5 freqs=23000 dts=20
.step amp=3 freqs=23000 dts=20
.step amp=3.5 freqs=23000 dts=20
.step amp=4 freqs=23000 dts=20
.step amp=4.5 freqs=23000 dts=20
.step amp=5 freqs=23000 dts=20
.step amp=1 freqs=23250 dts=20
.step amp=1.5 freqs=23250 dts=20
.step amp=2 freqs=23250 dts=20
.step amp=2.5 freqs=23250 dts=20
.step amp=3 freqs=23250 dts=20
.step amp=3.5 freqs=23250 dts=20
.step amp=4 freqs=23250 dts=20
.step amp=4.5 freqs=23250 dts=20
.step amp=5 freqs=23250 dts=20
.step amp=1 freqs=23500 dts=20
.step amp=1.5 freqs=23500 dts=20
.step amp=2 freqs=23500 dts=20
.step amp=2.5 freqs=23500 dts=20
.step amp=3 freqs=23500 dts=20
.step amp=3.5 freqs=23500 dts=20
.step amp=4 freqs=23500 dts=20
.step amp=4.5 freqs=23500 dts=20
.step amp=5 freqs=23500 dts=20
.step amp=1 freqs=23750 dts=20
.step amp=1.5 freqs=23750 dts=20
.step amp=2 freqs=23750 dts=20
.step amp=2.5 freqs=23750 dts=20
.step amp=3 freqs=23750 dts=20
.step amp=3.5 freqs=23750 dts=20
.step amp=4 freqs=23750 dts=20
.step amp=4.5 freqs=23750 dts=20
.step amp=5 freqs=23750 dts=20
.step amp=1 freqs=24000 dts=20
.step amp=1.5 freqs=24000 dts=20
.step amp=2 freqs=24000 dts=20
.step amp=2.5 freqs=24000 dts=20
.step amp=3 freqs=24000 dts=20
.step amp=3.5 freqs=24000 dts=20
.step amp=4 freqs=24000 dts=20
.step amp=4.5 freqs=24000 dts=20
.step amp=5 freqs=24000 dts=20
.step amp=1 freqs=24250 dts=20
.step amp=1.5 freqs=24250 dts=20
.step amp=2 freqs=24250 dts=20
.step amp=2.5 freqs=24250 dts=20
.step amp=3 freqs=24250 dts=20
.step amp=3.5 freqs=24250 dts=20
.step amp=4 freqs=24250 dts=20
.step amp=4.5 freqs=24250 dts=20
.step amp=5 freqs=24250 dts=20
.step amp=1 freqs=24500 dts=20
.step amp=1.5 freqs=24500 dts=20
.step amp=2 freqs=24500 dts=20
.step amp=2.5 freqs=24500 dts=20
.step amp=3 freqs=24500 dts=20
.step amp=3.5 freqs=24500 dts=20
.step amp=4 freqs=24500 dts=20
.step amp=4.5 freqs=24500 dts=20
.step amp=5 freqs=24500 dts=20
.step amp=1 freqs=24750 dts=20
.step amp=1.5 freqs=24750 dts=20
.step amp=2 freqs=24750 dts=20
.step amp=2.5 freqs=24750 dts=20
.step amp=3 freqs=24750 dts=20
.step amp=3.5 freqs=24750 dts=20
.step amp=4 freqs=24750 dts=20
.step amp=4.5 freqs=24750 dts=20
.step amp=5 freqs=24750 dts=20
.step amp=1 freqs=25000 dts=20
.step amp=1.5 freqs=25000 dts=20
.step amp=2 freqs=25000 dts=20
.step amp=2.5 freqs=25000 dts=20
.step amp=3 freqs=25000 dts=20
.step amp=3.5 freqs=25000 dts=20
.step amp=4 freqs=25000 dts=20
.step amp=4.5 freqs=25000 dts=20
.step amp=5 freqs=25000 dts=20
.step amp=1 freqs=20000 dts=25
.step amp=1.5 freqs=20000 dts=25
.step amp=2 freqs=20000 dts=25
.step amp=2.5 freqs=20000 dts=25
.step amp=3 freqs=20000 dts=25
.step amp=3.5 freqs=20000 dts=25
.step amp=4 freqs=20000 dts=25
.step amp=4.5 freqs=20000 dts=25
.step amp=5 freqs=20000 dts=25
.step amp=1 freqs=20250 dts=25
.step amp=1.5 freqs=20250 dts=25
.step amp=2 freqs=20250 dts=25
.step amp=2.5 freqs=20250 dts=25
.step amp=3 freqs=20250 dts=25
.step amp=3.5 freqs=20250 dts=25
.step amp=4 freqs=20250 dts=25
.step amp=4.5 freqs=20250 dts=25
.step amp=5 freqs=20250 dts=25
.step amp=1 freqs=20500 dts=25
.step amp=1.5 freqs=20500 dts=25
.step amp=2 freqs=20500 dts=25
.step amp=2.5 freqs=20500 dts=25
.step amp=3 freqs=20500 dts=25
.step amp=3.5 freqs=20500 dts=25
.step amp=4 freqs=20500 dts=25
.step amp=4.5 freqs=20500 dts=25
.step amp=5 freqs=20500 dts=25
.step amp=1 freqs=20750 dts=25
.step amp=1.5 freqs=20750 dts=25
.step amp=2 freqs=20750 dts=25
.step amp=2.5 freqs=20750 dts=25
.step amp=3 freqs=20750 dts=25
.step amp=3.5 freqs=20750 dts=25
.step amp=4 freqs=20750 dts=25
.step amp=4.5 freqs=20750 dts=25
.step amp=5 freqs=20750 dts=25
.step amp=1 freqs=21000 dts=25
.step amp=1.5 freqs=21000 dts=25
.step amp=2 freqs=21000 dts=25
.step amp=2.5 freqs=21000 dts=25
.step amp=3 freqs=21000 dts=25
.step amp=3.5 freqs=21000 dts=25
.step amp=4 freqs=21000 dts=25
.step amp=4.5 freqs=21000 dts=25
.step amp=5 freqs=21000 dts=25
.step amp=1 freqs=21250 dts=25
.step amp=1.5 freqs=21250 dts=25
.step amp=2 freqs=21250 dts=25
.step amp=2.5 freqs=21250 dts=25
.step amp=3 freqs=21250 dts=25
.step amp=3.5 freqs=21250 dts=25
.step amp=4 freqs=21250 dts=25
.step amp=4.5 freqs=21250 dts=25
.step amp=5 freqs=21250 dts=25
.step amp=1 freqs=21500 dts=25
.step amp=1.5 freqs=21500 dts=25
.step amp=2 freqs=21500 dts=25
.step amp=2.5 freqs=21500 dts=25
.step amp=3 freqs=21500 dts=25
.step amp=3.5 freqs=21500 dts=25
.step amp=4 freqs=21500 dts=25
.step amp=4.5 freqs=21500 dts=25
.step amp=5 freqs=21500 dts=25
.step amp=1 freqs=21750 dts=25
.step amp=1.5 freqs=21750 dts=25
.step amp=2 freqs=21750 dts=25
.step amp=2.5 freqs=21750 dts=25
.step amp=3 freqs=21750 dts=25
.step amp=3.5 freqs=21750 dts=25
.step amp=4 freqs=21750 dts=25
.step amp=4.5 freqs=21750 dts=25
.step amp=5 freqs=21750 dts=25
.step amp=1 freqs=22000 dts=25
.step amp=1.5 freqs=22000 dts=25
.step amp=2 freqs=22000 dts=25
.step amp=2.5 freqs=22000 dts=25
.step amp=3 freqs=22000 dts=25
.step amp=3.5 freqs=22000 dts=25
.step amp=4 freqs=22000 dts=25
.step amp=4.5 freqs=22000 dts=25
.step amp=5 freqs=22000 dts=25
.step amp=1 freqs=22250 dts=25
.step amp=1.5 freqs=22250 dts=25
.step amp=2 freqs=22250 dts=25
.step amp=2.5 freqs=22250 dts=25
.step amp=3 freqs=22250 dts=25
.step amp=3.5 freqs=22250 dts=25
.step amp=4 freqs=22250 dts=25
.step amp=4.5 freqs=22250 dts=25
.step amp=5 freqs=22250 dts=25
.step amp=1 freqs=22500 dts=25
.step amp=1.5 freqs=22500 dts=25
.step amp=2 freqs=22500 dts=25
.step amp=2.5 freqs=22500 dts=25
.step amp=3 freqs=22500 dts=25
.step amp=3.5 freqs=22500 dts=25
.step amp=4 freqs=22500 dts=25
.step amp=4.5 freqs=22500 dts=25
.step amp=5 freqs=22500 dts=25
.step amp=1 freqs=22750 dts=25
.step amp=1.5 freqs=22750 dts=25
.step amp=2 freqs=22750 dts=25
.step amp=2.5 freqs=22750 dts=25
.step amp=3 freqs=22750 dts=25
.step amp=3.5 freqs=22750 dts=25
.step amp=4 freqs=22750 dts=25
.step amp=4.5 freqs=22750 dts=25
.step amp=5 freqs=22750 dts=25
.step amp=1 freqs=23000 dts=25
.step amp=1.5 freqs=23000 dts=25
.step amp=2 freqs=23000 dts=25
.step amp=2.5 freqs=23000 dts=25
.step amp=3 freqs=23000 dts=25
.step amp=3.5 freqs=23000 dts=25
.step amp=4 freqs=23000 dts=25
.step amp=4.5 freqs=23000 dts=25
.step amp=5 freqs=23000 dts=25
.step amp=1 freqs=23250 dts=25
.step amp=1.5 freqs=23250 dts=25
.step amp=2 freqs=23250 dts=25
.step amp=2.5 freqs=23250 dts=25
.step amp=3 freqs=23250 dts=25
.step amp=3.5 freqs=23250 dts=25
.step amp=4 freqs=23250 dts=25
.step amp=4.5 freqs=23250 dts=25
.step amp=5 freqs=23250 dts=25
.step amp=1 freqs=23500 dts=25
.step amp=1.5 freqs=23500 dts=25
.step amp=2 freqs=23500 dts=25
.step amp=2.5 freqs=23500 dts=25
.step amp=3 freqs=23500 dts=25
.step amp=3.5 freqs=23500 dts=25
.step amp=4 freqs=23500 dts=25
.step amp=4.5 freqs=23500 dts=25
.step amp=5 freqs=23500 dts=25
.step amp=1 freqs=23750 dts=25
.step amp=1.5 freqs=23750 dts=25
.step amp=2 freqs=23750 dts=25
.step amp=2.5 freqs=23750 dts=25
.step amp=3 freqs=23750 dts=25
.step amp=3.5 freqs=23750 dts=25
.step amp=4 freqs=23750 dts=25
.step amp=4.5 freqs=23750 dts=25
.step amp=5 freqs=23750 dts=25
.step amp=1 freqs=24000 dts=25
.step amp=1.5 freqs=24000 dts=25
.step amp=2 freqs=24000 dts=25
.step amp=2.5 freqs=24000 dts=25
.step amp=3 freqs=24000 dts=25
.step amp=3.5 freqs=24000 dts=25
.step amp=4 freqs=24000 dts=25
.step amp=4.5 freqs=24000 dts=25
.step amp=5 freqs=24000 dts=25
.step amp=1 freqs=24250 dts=25
.step amp=1.5 freqs=24250 dts=25
.step amp=2 freqs=24250 dts=25
.step amp=2.5 freqs=24250 dts=25
.step amp=3 freqs=24250 dts=25
.step amp=3.5 freqs=24250 dts=25
.step amp=4 freqs=24250 dts=25
.step amp=4.5 freqs=24250 dts=25
.step amp=5 freqs=24250 dts=25
.step amp=1 freqs=24500 dts=25
.step amp=1.5 freqs=24500 dts=25
.step amp=2 freqs=24500 dts=25
.step amp=2.5 freqs=24500 dts=25
.step amp=3 freqs=24500 dts=25
.step amp=3.5 freqs=24500 dts=25
.step amp=4 freqs=24500 dts=25
.step amp=4.5 freqs=24500 dts=25
.step amp=5 freqs=24500 dts=25
.step amp=1 freqs=24750 dts=25
.step amp=1.5 freqs=24750 dts=25
.step amp=2 freqs=24750 dts=25
.step amp=2.5 freqs=24750 dts=25
.step amp=3 freqs=24750 dts=25
.step amp=3.5 freqs=24750 dts=25
.step amp=4 freqs=24750 dts=25
.step amp=4.5 freqs=24750 dts=25
.step amp=5 freqs=24750 dts=25
.step amp=1 freqs=25000 dts=25
.step amp=1.5 freqs=25000 dts=25
.step amp=2 freqs=25000 dts=25
.step amp=2.5 freqs=25000 dts=25
.step amp=3 freqs=25000 dts=25
.step amp=3.5 freqs=25000 dts=25
.step amp=4 freqs=25000 dts=25
.step amp=4.5 freqs=25000 dts=25
.step amp=5 freqs=25000 dts=25
.step amp=1 freqs=20000 dts=30
.step amp=1.5 freqs=20000 dts=30
.step amp=2 freqs=20000 dts=30
.step amp=2.5 freqs=20000 dts=30
.step amp=3 freqs=20000 dts=30
.step amp=3.5 freqs=20000 dts=30
.step amp=4 freqs=20000 dts=30
.step amp=4.5 freqs=20000 dts=30
.step amp=5 freqs=20000 dts=30
.step amp=1 freqs=20250 dts=30
.step amp=1.5 freqs=20250 dts=30
.step amp=2 freqs=20250 dts=30
.step amp=2.5 freqs=20250 dts=30
.step amp=3 freqs=20250 dts=30
.step amp=3.5 freqs=20250 dts=30
.step amp=4 freqs=20250 dts=30
.step amp=4.5 freqs=20250 dts=30
.step amp=5 freqs=20250 dts=30
.step amp=1 freqs=20500 dts=30
.step amp=1.5 freqs=20500 dts=30
.step amp=2 freqs=20500 dts=30
.step amp=2.5 freqs=20500 dts=30
.step amp=3 freqs=20500 dts=30
.step amp=3.5 freqs=20500 dts=30
.step amp=4 freqs=20500 dts=30
.step amp=4.5 freqs=20500 dts=30
.step amp=5 freqs=20500 dts=30
.step amp=1 freqs=20750 dts=30
.step amp=1.5 freqs=20750 dts=30
.step amp=2 freqs=20750 dts=30
.step amp=2.5 freqs=20750 dts=30
.step amp=3 freqs=20750 dts=30
.step amp=3.5 freqs=20750 dts=30
.step amp=4 freqs=20750 dts=30
.step amp=4.5 freqs=20750 dts=30
.step amp=5 freqs=20750 dts=30
.step amp=1 freqs=21000 dts=30
.step amp=1.5 freqs=21000 dts=30
.step amp=2 freqs=21000 dts=30
.step amp=2.5 freqs=21000 dts=30
.step amp=3 freqs=21000 dts=30
.step amp=3.5 freqs=21000 dts=30
.step amp=4 freqs=21000 dts=30
.step amp=4.5 freqs=21000 dts=30
.step amp=5 freqs=21000 dts=30
.step amp=1 freqs=21250 dts=30
.step amp=1.5 freqs=21250 dts=30
.step amp=2 freqs=21250 dts=30
.step amp=2.5 freqs=21250 dts=30
.step amp=3 freqs=21250 dts=30
.step amp=3.5 freqs=21250 dts=30
.step amp=4 freqs=21250 dts=30
.step amp=4.5 freqs=21250 dts=30
.step amp=5 freqs=21250 dts=30
.step amp=1 freqs=21500 dts=30
.step amp=1.5 freqs=21500 dts=30
.step amp=2 freqs=21500 dts=30
.step amp=2.5 freqs=21500 dts=30
.step amp=3 freqs=21500 dts=30
.step amp=3.5 freqs=21500 dts=30
.step amp=4 freqs=21500 dts=30
.step amp=4.5 freqs=21500 dts=30
.step amp=5 freqs=21500 dts=30
.step amp=1 freqs=21750 dts=30
.step amp=1.5 freqs=21750 dts=30
.step amp=2 freqs=21750 dts=30
.step amp=2.5 freqs=21750 dts=30
.step amp=3 freqs=21750 dts=30
.step amp=3.5 freqs=21750 dts=30
.step amp=4 freqs=21750 dts=30
.step amp=4.5 freqs=21750 dts=30
.step amp=5 freqs=21750 dts=30
.step amp=1 freqs=22000 dts=30
.step amp=1.5 freqs=22000 dts=30
.step amp=2 freqs=22000 dts=30
.step amp=2.5 freqs=22000 dts=30
.step amp=3 freqs=22000 dts=30
.step amp=3.5 freqs=22000 dts=30
.step amp=4 freqs=22000 dts=30
.step amp=4.5 freqs=22000 dts=30
.step amp=5 freqs=22000 dts=30
.step amp=1 freqs=22250 dts=30
.step amp=1.5 freqs=22250 dts=30
.step amp=2 freqs=22250 dts=30
.step amp=2.5 freqs=22250 dts=30
.step amp=3 freqs=22250 dts=30
.step amp=3.5 freqs=22250 dts=30
.step amp=4 freqs=22250 dts=30
.step amp=4.5 freqs=22250 dts=30
.step amp=5 freqs=22250 dts=30
.step amp=1 freqs=22500 dts=30
.step amp=1.5 freqs=22500 dts=30
.step amp=2 freqs=22500 dts=30
.step amp=2.5 freqs=22500 dts=30
.step amp=3 freqs=22500 dts=30
.step amp=3.5 freqs=22500 dts=30
.step amp=4 freqs=22500 dts=30
.step amp=4.5 freqs=22500 dts=30
.step amp=5 freqs=22500 dts=30
.step amp=1 freqs=22750 dts=30
.step amp=1.5 freqs=22750 dts=30
.step amp=2 freqs=22750 dts=30
.step amp=2.5 freqs=22750 dts=30
.step amp=3 freqs=22750 dts=30
.step amp=3.5 freqs=22750 dts=30
.step amp=4 freqs=22750 dts=30
.step amp=4.5 freqs=22750 dts=30
.step amp=5 freqs=22750 dts=30
.step amp=1 freqs=23000 dts=30
.step amp=1.5 freqs=23000 dts=30
.step amp=2 freqs=23000 dts=30
.step amp=2.5 freqs=23000 dts=30
.step amp=3 freqs=23000 dts=30
.step amp=3.5 freqs=23000 dts=30
.step amp=4 freqs=23000 dts=30
.step amp=4.5 freqs=23000 dts=30
.step amp=5 freqs=23000 dts=30
.step amp=1 freqs=23250 dts=30
.step amp=1.5 freqs=23250 dts=30
.step amp=2 freqs=23250 dts=30
.step amp=2.5 freqs=23250 dts=30
.step amp=3 freqs=23250 dts=30
.step amp=3.5 freqs=23250 dts=30
.step amp=4 freqs=23250 dts=30
.step amp=4.5 freqs=23250 dts=30
.step amp=5 freqs=23250 dts=30
.step amp=1 freqs=23500 dts=30
.step amp=1.5 freqs=23500 dts=30
.step amp=2 freqs=23500 dts=30
.step amp=2.5 freqs=23500 dts=30
.step amp=3 freqs=23500 dts=30
.step amp=3.5 freqs=23500 dts=30
.step amp=4 freqs=23500 dts=30
.step amp=4.5 freqs=23500 dts=30
.step amp=5 freqs=23500 dts=30
.step amp=1 freqs=23750 dts=30
.step amp=1.5 freqs=23750 dts=30
.step amp=2 freqs=23750 dts=30
.step amp=2.5 freqs=23750 dts=30
.step amp=3 freqs=23750 dts=30
.step amp=3.5 freqs=23750 dts=30
.step amp=4 freqs=23750 dts=30
.step amp=4.5 freqs=23750 dts=30
.step amp=5 freqs=23750 dts=30
.step amp=1 freqs=24000 dts=30
.step amp=1.5 freqs=24000 dts=30
.step amp=2 freqs=24000 dts=30
.step amp=2.5 freqs=24000 dts=30
.step amp=3 freqs=24000 dts=30
.step amp=3.5 freqs=24000 dts=30
.step amp=4 freqs=24000 dts=30
.step amp=4.5 freqs=24000 dts=30
.step amp=5 freqs=24000 dts=30
.step amp=1 freqs=24250 dts=30
.step amp=1.5 freqs=24250 dts=30
.step amp=2 freqs=24250 dts=30
.step amp=2.5 freqs=24250 dts=30
.step amp=3 freqs=24250 dts=30
.step amp=3.5 freqs=24250 dts=30
.step amp=4 freqs=24250 dts=30
.step amp=4.5 freqs=24250 dts=30
.step amp=5 freqs=24250 dts=30
.step amp=1 freqs=24500 dts=30
.step amp=1.5 freqs=24500 dts=30
.step amp=2 freqs=24500 dts=30
.step amp=2.5 freqs=24500 dts=30
.step amp=3 freqs=24500 dts=30
.step amp=3.5 freqs=24500 dts=30
.step amp=4 freqs=24500 dts=30
.step amp=4.5 freqs=24500 dts=30
.step amp=5 freqs=24500 dts=30
.step amp=1 freqs=24750 dts=30
.step amp=1.5 freqs=24750 dts=30
.step amp=2 freqs=24750 dts=30
.step amp=2.5 freqs=24750 dts=30
.step amp=3 freqs=24750 dts=30
.step amp=3.5 freqs=24750 dts=30
.step amp=4 freqs=24750 dts=30
.step amp=4.5 freqs=24750 dts=30
.step amp=5 freqs=24750 dts=30
.step amp=1 freqs=25000 dts=30
.step amp=1.5 freqs=25000 dts=30
.step amp=2 freqs=25000 dts=30
.step amp=2.5 freqs=25000 dts=30
.step amp=3 freqs=25000 dts=30
.step amp=3.5 freqs=25000 dts=30
.step amp=4 freqs=25000 dts=30
.step amp=4.5 freqs=25000 dts=30
.step amp=5 freqs=25000 dts=30
.step amp=1 freqs=20000 dts=35
.step amp=1.5 freqs=20000 dts=35
.step amp=2 freqs=20000 dts=35
.step amp=2.5 freqs=20000 dts=35
.step amp=3 freqs=20000 dts=35
.step amp=3.5 freqs=20000 dts=35
.step amp=4 freqs=20000 dts=35
.step amp=4.5 freqs=20000 dts=35
.step amp=5 freqs=20000 dts=35
.step amp=1 freqs=20250 dts=35
.step amp=1.5 freqs=20250 dts=35
.step amp=2 freqs=20250 dts=35
.step amp=2.5 freqs=20250 dts=35
.step amp=3 freqs=20250 dts=35
.step amp=3.5 freqs=20250 dts=35
.step amp=4 freqs=20250 dts=35
.step amp=4.5 freqs=20250 dts=35
.step amp=5 freqs=20250 dts=35
.step amp=1 freqs=20500 dts=35
.step amp=1.5 freqs=20500 dts=35
.step amp=2 freqs=20500 dts=35
.step amp=2.5 freqs=20500 dts=35
.step amp=3 freqs=20500 dts=35
.step amp=3.5 freqs=20500 dts=35
.step amp=4 freqs=20500 dts=35
.step amp=4.5 freqs=20500 dts=35
.step amp=5 freqs=20500 dts=35
.step amp=1 freqs=20750 dts=35
.step amp=1.5 freqs=20750 dts=35
.step amp=2 freqs=20750 dts=35
.step amp=2.5 freqs=20750 dts=35
.step amp=3 freqs=20750 dts=35
.step amp=3.5 freqs=20750 dts=35
.step amp=4 freqs=20750 dts=35
.step amp=4.5 freqs=20750 dts=35
.step amp=5 freqs=20750 dts=35
.step amp=1 freqs=21000 dts=35
.step amp=1.5 freqs=21000 dts=35
.step amp=2 freqs=21000 dts=35
.step amp=2.5 freqs=21000 dts=35
.step amp=3 freqs=21000 dts=35
.step amp=3.5 freqs=21000 dts=35
.step amp=4 freqs=21000 dts=35
.step amp=4.5 freqs=21000 dts=35
.step amp=5 freqs=21000 dts=35
.step amp=1 freqs=21250 dts=35
.step amp=1.5 freqs=21250 dts=35
.step amp=2 freqs=21250 dts=35
.step amp=2.5 freqs=21250 dts=35
.step amp=3 freqs=21250 dts=35
.step amp=3.5 freqs=21250 dts=35
.step amp=4 freqs=21250 dts=35
.step amp=4.5 freqs=21250 dts=35
.step amp=5 freqs=21250 dts=35
.step amp=1 freqs=21500 dts=35
.step amp=1.5 freqs=21500 dts=35
.step amp=2 freqs=21500 dts=35
.step amp=2.5 freqs=21500 dts=35
.step amp=3 freqs=21500 dts=35
.step amp=3.5 freqs=21500 dts=35
.step amp=4 freqs=21500 dts=35
.step amp=4.5 freqs=21500 dts=35
.step amp=5 freqs=21500 dts=35
.step amp=1 freqs=21750 dts=35
.step amp=1.5 freqs=21750 dts=35
.step amp=2 freqs=21750 dts=35
.step amp=2.5 freqs=21750 dts=35
.step amp=3 freqs=21750 dts=35
.step amp=3.5 freqs=21750 dts=35
.step amp=4 freqs=21750 dts=35
.step amp=4.5 freqs=21750 dts=35
.step amp=5 freqs=21750 dts=35
.step amp=1 freqs=22000 dts=35
.step amp=1.5 freqs=22000 dts=35
.step amp=2 freqs=22000 dts=35
.step amp=2.5 freqs=22000 dts=35
.step amp=3 freqs=22000 dts=35
.step amp=3.5 freqs=22000 dts=35
.step amp=4 freqs=22000 dts=35
.step amp=4.5 freqs=22000 dts=35
.step amp=5 freqs=22000 dts=35
.step amp=1 freqs=22250 dts=35
.step amp=1.5 freqs=22250 dts=35
.step amp=2 freqs=22250 dts=35
.step amp=2.5 freqs=22250 dts=35
.step amp=3 freqs=22250 dts=35
.step amp=3.5 freqs=22250 dts=35
.step amp=4 freqs=22250 dts=35
.step amp=4.5 freqs=22250 dts=35
.step amp=5 freqs=22250 dts=35
.step amp=1 freqs=22500 dts=35
.step amp=1.5 freqs=22500 dts=35
.step amp=2 freqs=22500 dts=35
.step amp=2.5 freqs=22500 dts=35
.step amp=3 freqs=22500 dts=35
.step amp=3.5 freqs=22500 dts=35
.step amp=4 freqs=22500 dts=35
.step amp=4.5 freqs=22500 dts=35
.step amp=5 freqs=22500 dts=35
.step amp=1 freqs=22750 dts=35
.step amp=1.5 freqs=22750 dts=35
.step amp=2 freqs=22750 dts=35
.step amp=2.5 freqs=22750 dts=35
.step amp=3 freqs=22750 dts=35
.step amp=3.5 freqs=22750 dts=35
.step amp=4 freqs=22750 dts=35
.step amp=4.5 freqs=22750 dts=35
.step amp=5 freqs=22750 dts=35
.step amp=1 freqs=23000 dts=35
.step amp=1.5 freqs=23000 dts=35
.step amp=2 freqs=23000 dts=35
.step amp=2.5 freqs=23000 dts=35
.step amp=3 freqs=23000 dts=35
.step amp=3.5 freqs=23000 dts=35
.step amp=4 freqs=23000 dts=35
.step amp=4.5 freqs=23000 dts=35
.step amp=5 freqs=23000 dts=35
.step amp=1 freqs=23250 dts=35
.step amp=1.5 freqs=23250 dts=35
.step amp=2 freqs=23250 dts=35
.step amp=2.5 freqs=23250 dts=35
.step amp=3 freqs=23250 dts=35
.step amp=3.5 freqs=23250 dts=35
.step amp=4 freqs=23250 dts=35
.step amp=4.5 freqs=23250 dts=35
.step amp=5 freqs=23250 dts=35
.step amp=1 freqs=23500 dts=35
.step amp=1.5 freqs=23500 dts=35
.step amp=2 freqs=23500 dts=35
.step amp=2.5 freqs=23500 dts=35
.step amp=3 freqs=23500 dts=35
.step amp=3.5 freqs=23500 dts=35
.step amp=4 freqs=23500 dts=35
.step amp=4.5 freqs=23500 dts=35
.step amp=5 freqs=23500 dts=35
.step amp=1 freqs=23750 dts=35
.step amp=1.5 freqs=23750 dts=35
.step amp=2 freqs=23750 dts=35
.step amp=2.5 freqs=23750 dts=35
.step amp=3 freqs=23750 dts=35
.step amp=3.5 freqs=23750 dts=35
.step amp=4 freqs=23750 dts=35
.step amp=4.5 freqs=23750 dts=35
.step amp=5 freqs=23750 dts=35
.step amp=1 freqs=24000 dts=35
.step amp=1.5 freqs=24000 dts=35
.step amp=2 freqs=24000 dts=35
.step amp=2.5 freqs=24000 dts=35
.step amp=3 freqs=24000 dts=35
.step amp=3.5 freqs=24000 dts=35
.step amp=4 freqs=24000 dts=35
.step amp=4.5 freqs=24000 dts=35
.step amp=5 freqs=24000 dts=35
.step amp=1 freqs=24250 dts=35
.step amp=1.5 freqs=24250 dts=35
.step amp=2 freqs=24250 dts=35
.step amp=2.5 freqs=24250 dts=35
.step amp=3 freqs=24250 dts=35
.step amp=3.5 freqs=24250 dts=35
.step amp=4 freqs=24250 dts=35
.step amp=4.5 freqs=24250 dts=35
.step amp=5 freqs=24250 dts=35
.step amp=1 freqs=24500 dts=35
.step amp=1.5 freqs=24500 dts=35
.step amp=2 freqs=24500 dts=35
.step amp=2.5 freqs=24500 dts=35
.step amp=3 freqs=24500 dts=35
.step amp=3.5 freqs=24500 dts=35
.step amp=4 freqs=24500 dts=35
.step amp=4.5 freqs=24500 dts=35
.step amp=5 freqs=24500 dts=35
.step amp=1 freqs=24750 dts=35
.step amp=1.5 freqs=24750 dts=35
.step amp=2 freqs=24750 dts=35
.step amp=2.5 freqs=24750 dts=35
.step amp=3 freqs=24750 dts=35
.step amp=3.5 freqs=24750 dts=35
.step amp=4 freqs=24750 dts=35
.step amp=4.5 freqs=24750 dts=35
.step amp=5 freqs=24750 dts=35
.step amp=1 freqs=25000 dts=35
.step amp=1.5 freqs=25000 dts=35
.step amp=2 freqs=25000 dts=35
.step amp=2.5 freqs=25000 dts=35
.step amp=3 freqs=25000 dts=35
.step amp=3.5 freqs=25000 dts=35
.step amp=4 freqs=25000 dts=35
.step amp=4.5 freqs=25000 dts=35
.step amp=5 freqs=25000 dts=35
.step amp=1 freqs=20000 dts=40
.step amp=1.5 freqs=20000 dts=40
.step amp=2 freqs=20000 dts=40
.step amp=2.5 freqs=20000 dts=40
.step amp=3 freqs=20000 dts=40
.step amp=3.5 freqs=20000 dts=40
.step amp=4 freqs=20000 dts=40
.step amp=4.5 freqs=20000 dts=40
.step amp=5 freqs=20000 dts=40
.step amp=1 freqs=20250 dts=40
.step amp=1.5 freqs=20250 dts=40
.step amp=2 freqs=20250 dts=40
.step amp=2.5 freqs=20250 dts=40
.step amp=3 freqs=20250 dts=40
.step amp=3.5 freqs=20250 dts=40
.step amp=4 freqs=20250 dts=40
.step amp=4.5 freqs=20250 dts=40
.step amp=5 freqs=20250 dts=40
.step amp=1 freqs=20500 dts=40
.step amp=1.5 freqs=20500 dts=40
.step amp=2 freqs=20500 dts=40
.step amp=2.5 freqs=20500 dts=40
.step amp=3 freqs=20500 dts=40
.step amp=3.5 freqs=20500 dts=40
.step amp=4 freqs=20500 dts=40
.step amp=4.5 freqs=20500 dts=40
.step amp=5 freqs=20500 dts=40
.step amp=1 freqs=20750 dts=40
.step amp=1.5 freqs=20750 dts=40
.step amp=2 freqs=20750 dts=40
.step amp=2.5 freqs=20750 dts=40
.step amp=3 freqs=20750 dts=40
.step amp=3.5 freqs=20750 dts=40
.step amp=4 freqs=20750 dts=40
.step amp=4.5 freqs=20750 dts=40
.step amp=5 freqs=20750 dts=40
.step amp=1 freqs=21000 dts=40
.step amp=1.5 freqs=21000 dts=40
.step amp=2 freqs=21000 dts=40
.step amp=2.5 freqs=21000 dts=40
.step amp=3 freqs=21000 dts=40
.step amp=3.5 freqs=21000 dts=40
.step amp=4 freqs=21000 dts=40
.step amp=4.5 freqs=21000 dts=40
.step amp=5 freqs=21000 dts=40
.step amp=1 freqs=21250 dts=40
.step amp=1.5 freqs=21250 dts=40
.step amp=2 freqs=21250 dts=40
.step amp=2.5 freqs=21250 dts=40
.step amp=3 freqs=21250 dts=40
.step amp=3.5 freqs=21250 dts=40
.step amp=4 freqs=21250 dts=40
.step amp=4.5 freqs=21250 dts=40
.step amp=5 freqs=21250 dts=40
.step amp=1 freqs=21500 dts=40
.step amp=1.5 freqs=21500 dts=40
.step amp=2 freqs=21500 dts=40
.step amp=2.5 freqs=21500 dts=40
.step amp=3 freqs=21500 dts=40
.step amp=3.5 freqs=21500 dts=40
.step amp=4 freqs=21500 dts=40
.step amp=4.5 freqs=21500 dts=40
.step amp=5 freqs=21500 dts=40
.step amp=1 freqs=21750 dts=40
.step amp=1.5 freqs=21750 dts=40
.step amp=2 freqs=21750 dts=40
.step amp=2.5 freqs=21750 dts=40
.step amp=3 freqs=21750 dts=40
.step amp=3.5 freqs=21750 dts=40
.step amp=4 freqs=21750 dts=40
.step amp=4.5 freqs=21750 dts=40
.step amp=5 freqs=21750 dts=40
.step amp=1 freqs=22000 dts=40
.step amp=1.5 freqs=22000 dts=40
.step amp=2 freqs=22000 dts=40
.step amp=2.5 freqs=22000 dts=40
.step amp=3 freqs=22000 dts=40
.step amp=3.5 freqs=22000 dts=40
.step amp=4 freqs=22000 dts=40
.step amp=4.5 freqs=22000 dts=40
.step amp=5 freqs=22000 dts=40
.step amp=1 freqs=22250 dts=40
.step amp=1.5 freqs=22250 dts=40
.step amp=2 freqs=22250 dts=40
.step amp=2.5 freqs=22250 dts=40
.step amp=3 freqs=22250 dts=40
.step amp=3.5 freqs=22250 dts=40
.step amp=4 freqs=22250 dts=40
.step amp=4.5 freqs=22250 dts=40
.step amp=5 freqs=22250 dts=40
.step amp=1 freqs=22500 dts=40
.step amp=1.5 freqs=22500 dts=40
.step amp=2 freqs=22500 dts=40
.step amp=2.5 freqs=22500 dts=40
.step amp=3 freqs=22500 dts=40
.step amp=3.5 freqs=22500 dts=40
.step amp=4 freqs=22500 dts=40
.step amp=4.5 freqs=22500 dts=40
.step amp=5 freqs=22500 dts=40
.step amp=1 freqs=22750 dts=40
.step amp=1.5 freqs=22750 dts=40
.step amp=2 freqs=22750 dts=40
.step amp=2.5 freqs=22750 dts=40
.step amp=3 freqs=22750 dts=40
.step amp=3.5 freqs=22750 dts=40
.step amp=4 freqs=22750 dts=40
.step amp=4.5 freqs=22750 dts=40
.step amp=5 freqs=22750 dts=40
.step amp=1 freqs=23000 dts=40
.step amp=1.5 freqs=23000 dts=40
.step amp=2 freqs=23000 dts=40
.step amp=2.5 freqs=23000 dts=40
.step amp=3 freqs=23000 dts=40
.step amp=3.5 freqs=23000 dts=40
.step amp=4 freqs=23000 dts=40
.step amp=4.5 freqs=23000 dts=40
.step amp=5 freqs=23000 dts=40
.step amp=1 freqs=23250 dts=40
.step amp=1.5 freqs=23250 dts=40
.step amp=2 freqs=23250 dts=40
.step amp=2.5 freqs=23250 dts=40
.step amp=3 freqs=23250 dts=40
.step amp=3.5 freqs=23250 dts=40
.step amp=4 freqs=23250 dts=40
.step amp=4.5 freqs=23250 dts=40
.step amp=5 freqs=23250 dts=40
.step amp=1 freqs=23500 dts=40
.step amp=1.5 freqs=23500 dts=40
.step amp=2 freqs=23500 dts=40
.step amp=2.5 freqs=23500 dts=40
.step amp=3 freqs=23500 dts=40
.step amp=3.5 freqs=23500 dts=40
.step amp=4 freqs=23500 dts=40
.step amp=4.5 freqs=23500 dts=40
.step amp=5 freqs=23500 dts=40
.step amp=1 freqs=23750 dts=40
.step amp=1.5 freqs=23750 dts=40
.step amp=2 freqs=23750 dts=40
.step amp=2.5 freqs=23750 dts=40
.step amp=3 freqs=23750 dts=40
.step amp=3.5 freqs=23750 dts=40
.step amp=4 freqs=23750 dts=40
.step amp=4.5 freqs=23750 dts=40
.step amp=5 freqs=23750 dts=40
.step amp=1 freqs=24000 dts=40
.step amp=1.5 freqs=24000 dts=40
.step amp=2 freqs=24000 dts=40
.step amp=2.5 freqs=24000 dts=40
.step amp=3 freqs=24000 dts=40
.step amp=3.5 freqs=24000 dts=40
.step amp=4 freqs=24000 dts=40
.step amp=4.5 freqs=24000 dts=40
.step amp=5 freqs=24000 dts=40
.step amp=1 freqs=24250 dts=40
.step amp=1.5 freqs=24250 dts=40
.step amp=2 freqs=24250 dts=40
.step amp=2.5 freqs=24250 dts=40
.step amp=3 freqs=24250 dts=40
.step amp=3.5 freqs=24250 dts=40
.step amp=4 freqs=24250 dts=40
.step amp=4.5 freqs=24250 dts=40
.step amp=5 freqs=24250 dts=40
.step amp=1 freqs=24500 dts=40
.step amp=1.5 freqs=24500 dts=40
.step amp=2 freqs=24500 dts=40
.step amp=2.5 freqs=24500 dts=40
.step amp=3 freqs=24500 dts=40
.step amp=3.5 freqs=24500 dts=40
.step amp=4 freqs=24500 dts=40
.step amp=4.5 freqs=24500 dts=40
.step amp=5 freqs=24500 dts=40
.step amp=1 freqs=24750 dts=40
.step amp=1.5 freqs=24750 dts=40
.step amp=2 freqs=24750 dts=40
.step amp=2.5 freqs=24750 dts=40
.step amp=3 freqs=24750 dts=40
.step amp=3.5 freqs=24750 dts=40
.step amp=4 freqs=24750 dts=40
.step amp=4.5 freqs=24750 dts=40
.step amp=5 freqs=24750 dts=40
.step amp=1 freqs=25000 dts=40
.step amp=1.5 freqs=25000 dts=40
.step amp=2 freqs=25000 dts=40
.step amp=2.5 freqs=25000 dts=40
.step amp=3 freqs=25000 dts=40
.step amp=3.5 freqs=25000 dts=40
.step amp=4 freqs=25000 dts=40
.step amp=4.5 freqs=25000 dts=40
.step amp=5 freqs=25000 dts=40
.step amp=1 freqs=20000 dts=45
.step amp=1.5 freqs=20000 dts=45
.step amp=2 freqs=20000 dts=45
.step amp=2.5 freqs=20000 dts=45
.step amp=3 freqs=20000 dts=45
.step amp=3.5 freqs=20000 dts=45
.step amp=4 freqs=20000 dts=45
.step amp=4.5 freqs=20000 dts=45
.step amp=5 freqs=20000 dts=45
.step amp=1 freqs=20250 dts=45
.step amp=1.5 freqs=20250 dts=45
.step amp=2 freqs=20250 dts=45
.step amp=2.5 freqs=20250 dts=45
.step amp=3 freqs=20250 dts=45
.step amp=3.5 freqs=20250 dts=45
.step amp=4 freqs=20250 dts=45
.step amp=4.5 freqs=20250 dts=45
.step amp=5 freqs=20250 dts=45
.step amp=1 freqs=20500 dts=45
.step amp=1.5 freqs=20500 dts=45
.step amp=2 freqs=20500 dts=45
.step amp=2.5 freqs=20500 dts=45
.step amp=3 freqs=20500 dts=45
.step amp=3.5 freqs=20500 dts=45
.step amp=4 freqs=20500 dts=45
.step amp=4.5 freqs=20500 dts=45
.step amp=5 freqs=20500 dts=45
.step amp=1 freqs=20750 dts=45
.step amp=1.5 freqs=20750 dts=45
.step amp=2 freqs=20750 dts=45
.step amp=2.5 freqs=20750 dts=45
.step amp=3 freqs=20750 dts=45
.step amp=3.5 freqs=20750 dts=45
.step amp=4 freqs=20750 dts=45
.step amp=4.5 freqs=20750 dts=45
.step amp=5 freqs=20750 dts=45
.step amp=1 freqs=21000 dts=45
.step amp=1.5 freqs=21000 dts=45
.step amp=2 freqs=21000 dts=45
.step amp=2.5 freqs=21000 dts=45
.step amp=3 freqs=21000 dts=45
.step amp=3.5 freqs=21000 dts=45
.step amp=4 freqs=21000 dts=45
.step amp=4.5 freqs=21000 dts=45
.step amp=5 freqs=21000 dts=45
.step amp=1 freqs=21250 dts=45
.step amp=1.5 freqs=21250 dts=45
.step amp=2 freqs=21250 dts=45
.step amp=2.5 freqs=21250 dts=45
.step amp=3 freqs=21250 dts=45
.step amp=3.5 freqs=21250 dts=45
.step amp=4 freqs=21250 dts=45
.step amp=4.5 freqs=21250 dts=45
.step amp=5 freqs=21250 dts=45
.step amp=1 freqs=21500 dts=45
.step amp=1.5 freqs=21500 dts=45
.step amp=2 freqs=21500 dts=45
.step amp=2.5 freqs=21500 dts=45
.step amp=3 freqs=21500 dts=45
.step amp=3.5 freqs=21500 dts=45
.step amp=4 freqs=21500 dts=45
.step amp=4.5 freqs=21500 dts=45
.step amp=5 freqs=21500 dts=45
.step amp=1 freqs=21750 dts=45
.step amp=1.5 freqs=21750 dts=45
.step amp=2 freqs=21750 dts=45
.step amp=2.5 freqs=21750 dts=45
.step amp=3 freqs=21750 dts=45
.step amp=3.5 freqs=21750 dts=45
.step amp=4 freqs=21750 dts=45
.step amp=4.5 freqs=21750 dts=45
.step amp=5 freqs=21750 dts=45
.step amp=1 freqs=22000 dts=45
.step amp=1.5 freqs=22000 dts=45
.step amp=2 freqs=22000 dts=45
.step amp=2.5 freqs=22000 dts=45
.step amp=3 freqs=22000 dts=45
.step amp=3.5 freqs=22000 dts=45
.step amp=4 freqs=22000 dts=45
.step amp=4.5 freqs=22000 dts=45
.step amp=5 freqs=22000 dts=45
.step amp=1 freqs=22250 dts=45
.step amp=1.5 freqs=22250 dts=45
.step amp=2 freqs=22250 dts=45
.step amp=2.5 freqs=22250 dts=45
.step amp=3 freqs=22250 dts=45
.step amp=3.5 freqs=22250 dts=45
.step amp=4 freqs=22250 dts=45
.step amp=4.5 freqs=22250 dts=45
.step amp=5 freqs=22250 dts=45
.step amp=1 freqs=22500 dts=45
.step amp=1.5 freqs=22500 dts=45
.step amp=2 freqs=22500 dts=45
.step amp=2.5 freqs=22500 dts=45
.step amp=3 freqs=22500 dts=45
.step amp=3.5 freqs=22500 dts=45
.step amp=4 freqs=22500 dts=45
.step amp=4.5 freqs=22500 dts=45
.step amp=5 freqs=22500 dts=45
.step amp=1 freqs=22750 dts=45
.step amp=1.5 freqs=22750 dts=45
.step amp=2 freqs=22750 dts=45
.step amp=2.5 freqs=22750 dts=45
.step amp=3 freqs=22750 dts=45
.step amp=3.5 freqs=22750 dts=45
.step amp=4 freqs=22750 dts=45
.step amp=4.5 freqs=22750 dts=45
.step amp=5 freqs=22750 dts=45
.step amp=1 freqs=23000 dts=45
.step amp=1.5 freqs=23000 dts=45
.step amp=2 freqs=23000 dts=45
.step amp=2.5 freqs=23000 dts=45
.step amp=3 freqs=23000 dts=45
.step amp=3.5 freqs=23000 dts=45
.step amp=4 freqs=23000 dts=45
.step amp=4.5 freqs=23000 dts=45
.step amp=5 freqs=23000 dts=45
.step amp=1 freqs=23250 dts=45
.step amp=1.5 freqs=23250 dts=45
.step amp=2 freqs=23250 dts=45
.step amp=2.5 freqs=23250 dts=45
.step amp=3 freqs=23250 dts=45
.step amp=3.5 freqs=23250 dts=45
.step amp=4 freqs=23250 dts=45
.step amp=4.5 freqs=23250 dts=45
.step amp=5 freqs=23250 dts=45
.step amp=1 freqs=23500 dts=45
.step amp=1.5 freqs=23500 dts=45
.step amp=2 freqs=23500 dts=45
.step amp=2.5 freqs=23500 dts=45
.step amp=3 freqs=23500 dts=45
.step amp=3.5 freqs=23500 dts=45
.step amp=4 freqs=23500 dts=45
.step amp=4.5 freqs=23500 dts=45
.step amp=5 freqs=23500 dts=45
.step amp=1 freqs=23750 dts=45
.step amp=1.5 freqs=23750 dts=45
.step amp=2 freqs=23750 dts=45
.step amp=2.5 freqs=23750 dts=45
.step amp=3 freqs=23750 dts=45
.step amp=3.5 freqs=23750 dts=45
.step amp=4 freqs=23750 dts=45
.step amp=4.5 freqs=23750 dts=45
.step amp=5 freqs=23750 dts=45
.step amp=1 freqs=24000 dts=45
.step amp=1.5 freqs=24000 dts=45
.step amp=2 freqs=24000 dts=45
.step amp=2.5 freqs=24000 dts=45
.step amp=3 freqs=24000 dts=45
.step amp=3.5 freqs=24000 dts=45
.step amp=4 freqs=24000 dts=45
.step amp=4.5 freqs=24000 dts=45
.step amp=5 freqs=24000 dts=45
.step amp=1 freqs=24250 dts=45
.step amp=1.5 freqs=24250 dts=45
.step amp=2 freqs=24250 dts=45
.step amp=2.5 freqs=24250 dts=45
.step amp=3 freqs=24250 dts=45
.step amp=3.5 freqs=24250 dts=45
.step amp=4 freqs=24250 dts=45
.step amp=4.5 freqs=24250 dts=45
.step amp=5 freqs=24250 dts=45
.step amp=1 freqs=24500 dts=45
.step amp=1.5 freqs=24500 dts=45
.step amp=2 freqs=24500 dts=45
.step amp=2.5 freqs=24500 dts=45
.step amp=3 freqs=24500 dts=45
.step amp=3.5 freqs=24500 dts=45
.step amp=4 freqs=24500 dts=45
.step amp=4.5 freqs=24500 dts=45
.step amp=5 freqs=24500 dts=45
.step amp=1 freqs=24750 dts=45
.step amp=1.5 freqs=24750 dts=45
.step amp=2 freqs=24750 dts=45
.step amp=2.5 freqs=24750 dts=45
.step amp=3 freqs=24750 dts=45
.step amp=3.5 freqs=24750 dts=45
.step amp=4 freqs=24750 dts=45
.step amp=4.5 freqs=24750 dts=45
.step amp=5 freqs=24750 dts=45
.step amp=1 freqs=25000 dts=45
.step amp=1.5 freqs=25000 dts=45
.step amp=2 freqs=25000 dts=45
.step amp=2.5 freqs=25000 dts=45
.step amp=3 freqs=25000 dts=45
.step amp=3.5 freqs=25000 dts=45
.step amp=4 freqs=25000 dts=45
.step amp=4.5 freqs=25000 dts=45
.step amp=5 freqs=25000 dts=45
.step amp=1 freqs=20000 dts=50
.step amp=1.5 freqs=20000 dts=50
.step amp=2 freqs=20000 dts=50
.step amp=2.5 freqs=20000 dts=50
.step amp=3 freqs=20000 dts=50
.step amp=3.5 freqs=20000 dts=50
.step amp=4 freqs=20000 dts=50
.step amp=4.5 freqs=20000 dts=50
.step amp=5 freqs=20000 dts=50
.step amp=1 freqs=20250 dts=50
.step amp=1.5 freqs=20250 dts=50
.step amp=2 freqs=20250 dts=50
.step amp=2.5 freqs=20250 dts=50
.step amp=3 freqs=20250 dts=50
.step amp=3.5 freqs=20250 dts=50
.step amp=4 freqs=20250 dts=50
.step amp=4.5 freqs=20250 dts=50
.step amp=5 freqs=20250 dts=50
.step amp=1 freqs=20500 dts=50
.step amp=1.5 freqs=20500 dts=50
.step amp=2 freqs=20500 dts=50
.step amp=2.5 freqs=20500 dts=50
.step amp=3 freqs=20500 dts=50
.step amp=3.5 freqs=20500 dts=50
.step amp=4 freqs=20500 dts=50
.step amp=4.5 freqs=20500 dts=50
.step amp=5 freqs=20500 dts=50
.step amp=1 freqs=20750 dts=50
.step amp=1.5 freqs=20750 dts=50
.step amp=2 freqs=20750 dts=50
.step amp=2.5 freqs=20750 dts=50
.step amp=3 freqs=20750 dts=50
.step amp=3.5 freqs=20750 dts=50
.step amp=4 freqs=20750 dts=50
.step amp=4.5 freqs=20750 dts=50
.step amp=5 freqs=20750 dts=50
.step amp=1 freqs=21000 dts=50
.step amp=1.5 freqs=21000 dts=50
.step amp=2 freqs=21000 dts=50
.step amp=2.5 freqs=21000 dts=50
.step amp=3 freqs=21000 dts=50
.step amp=3.5 freqs=21000 dts=50
.step amp=4 freqs=21000 dts=50
.step amp=4.5 freqs=21000 dts=50
.step amp=5 freqs=21000 dts=50
.step amp=1 freqs=21250 dts=50
.step amp=1.5 freqs=21250 dts=50
.step amp=2 freqs=21250 dts=50
.step amp=2.5 freqs=21250 dts=50
.step amp=3 freqs=21250 dts=50
.step amp=3.5 freqs=21250 dts=50
.step amp=4 freqs=21250 dts=50
.step amp=4.5 freqs=21250 dts=50
.step amp=5 freqs=21250 dts=50
.step amp=1 freqs=21500 dts=50
.step amp=1.5 freqs=21500 dts=50
.step amp=2 freqs=21500 dts=50
.step amp=2.5 freqs=21500 dts=50
.step amp=3 freqs=21500 dts=50
.step amp=3.5 freqs=21500 dts=50
.step amp=4 freqs=21500 dts=50
.step amp=4.5 freqs=21500 dts=50
.step amp=5 freqs=21500 dts=50
.step amp=1 freqs=21750 dts=50
.step amp=1.5 freqs=21750 dts=50
.step amp=2 freqs=21750 dts=50
.step amp=2.5 freqs=21750 dts=50
.step amp=3 freqs=21750 dts=50
.step amp=3.5 freqs=21750 dts=50
.step amp=4 freqs=21750 dts=50
.step amp=4.5 freqs=21750 dts=50
.step amp=5 freqs=21750 dts=50
.step amp=1 freqs=22000 dts=50
.step amp=1.5 freqs=22000 dts=50
.step amp=2 freqs=22000 dts=50
.step amp=2.5 freqs=22000 dts=50
.step amp=3 freqs=22000 dts=50
.step amp=3.5 freqs=22000 dts=50
.step amp=4 freqs=22000 dts=50
.step amp=4.5 freqs=22000 dts=50
.step amp=5 freqs=22000 dts=50
.step amp=1 freqs=22250 dts=50
.step amp=1.5 freqs=22250 dts=50
.step amp=2 freqs=22250 dts=50
.step amp=2.5 freqs=22250 dts=50
.step amp=3 freqs=22250 dts=50
.step amp=3.5 freqs=22250 dts=50
.step amp=4 freqs=22250 dts=50
.step amp=4.5 freqs=22250 dts=50
.step amp=5 freqs=22250 dts=50
.step amp=1 freqs=22500 dts=50
.step amp=1.5 freqs=22500 dts=50
.step amp=2 freqs=22500 dts=50
.step amp=2.5 freqs=22500 dts=50
.step amp=3 freqs=22500 dts=50
.step amp=3.5 freqs=22500 dts=50
.step amp=4 freqs=22500 dts=50
.step amp=4.5 freqs=22500 dts=50
.step amp=5 freqs=22500 dts=50
.step amp=1 freqs=22750 dts=50
.step amp=1.5 freqs=22750 dts=50
.step amp=2 freqs=22750 dts=50
.step amp=2.5 freqs=22750 dts=50
.step amp=3 freqs=22750 dts=50
.step amp=3.5 freqs=22750 dts=50
.step amp=4 freqs=22750 dts=50
.step amp=4.5 freqs=22750 dts=50
.step amp=5 freqs=22750 dts=50
.step amp=1 freqs=23000 dts=50
.step amp=1.5 freqs=23000 dts=50
.step amp=2 freqs=23000 dts=50
.step amp=2.5 freqs=23000 dts=50
.step amp=3 freqs=23000 dts=50
.step amp=3.5 freqs=23000 dts=50
.step amp=4 freqs=23000 dts=50
.step amp=4.5 freqs=23000 dts=50
.step amp=5 freqs=23000 dts=50
.step amp=1 freqs=23250 dts=50
.step amp=1.5 freqs=23250 dts=50
.step amp=2 freqs=23250 dts=50
.step amp=2.5 freqs=23250 dts=50
.step amp=3 freqs=23250 dts=50
.step amp=3.5 freqs=23250 dts=50
.step amp=4 freqs=23250 dts=50
.step amp=4.5 freqs=23250 dts=50
.step amp=5 freqs=23250 dts=50
.step amp=1 freqs=23500 dts=50
.step amp=1.5 freqs=23500 dts=50
.step amp=2 freqs=23500 dts=50
.step amp=2.5 freqs=23500 dts=50
.step amp=3 freqs=23500 dts=50
.step amp=3.5 freqs=23500 dts=50
.step amp=4 freqs=23500 dts=50
.step amp=4.5 freqs=23500 dts=50
.step amp=5 freqs=23500 dts=50
.step amp=1 freqs=23750 dts=50
.step amp=1.5 freqs=23750 dts=50
.step amp=2 freqs=23750 dts=50
.step amp=2.5 freqs=23750 dts=50
.step amp=3 freqs=23750 dts=50
.step amp=3.5 freqs=23750 dts=50
.step amp=4 freqs=23750 dts=50
.step amp=4.5 freqs=23750 dts=50
.step amp=5 freqs=23750 dts=50
.step amp=1 freqs=24000 dts=50
.step amp=1.5 freqs=24000 dts=50
.step amp=2 freqs=24000 dts=50
.step amp=2.5 freqs=24000 dts=50
.step amp=3 freqs=24000 dts=50
.step amp=3.5 freqs=24000 dts=50
.step amp=4 freqs=24000 dts=50
.step amp=4.5 freqs=24000 dts=50
.step amp=5 freqs=24000 dts=50
.step amp=1 freqs=24250 dts=50
.step amp=1.5 freqs=24250 dts=50
.step amp=2 freqs=24250 dts=50
.step amp=2.5 freqs=24250 dts=50
.step amp=3 freqs=24250 dts=50
.step amp=3.5 freqs=24250 dts=50
.step amp=4 freqs=24250 dts=50
.step amp=4.5 freqs=24250 dts=50
.step amp=5 freqs=24250 dts=50
.step amp=1 freqs=24500 dts=50
.step amp=1.5 freqs=24500 dts=50
.step amp=2 freqs=24500 dts=50
.step amp=2.5 freqs=24500 dts=50
.step amp=3 freqs=24500 dts=50
.step amp=3.5 freqs=24500 dts=50
.step amp=4 freqs=24500 dts=50
.step amp=4.5 freqs=24500 dts=50
.step amp=5 freqs=24500 dts=50
.step amp=1 freqs=24750 dts=50
.step amp=1.5 freqs=24750 dts=50
.step amp=2 freqs=24750 dts=50
.step amp=2.5 freqs=24750 dts=50
.step amp=3 freqs=24750 dts=50
.step amp=3.5 freqs=24750 dts=50
.step amp=4 freqs=24750 dts=50
.step amp=4.5 freqs=24750 dts=50
.step amp=5 freqs=24750 dts=50
.step amp=1 freqs=25000 dts=50
.step amp=1.5 freqs=25000 dts=50
.step amp=2 freqs=25000 dts=50
.step amp=2.5 freqs=25000 dts=50
.step amp=3 freqs=25000 dts=50
.step amp=3.5 freqs=25000 dts=50
.step amp=4 freqs=25000 dts=50
.step amp=4.5 freqs=25000 dts=50
.step amp=5 freqs=25000 dts=50

Date: Sat Apr  4 20:06:35 2020
Total elapsed time: 9842.192 seconds.

tnom = 27
temp = 27
method = modified trap
totiter = 104415
traniter = 104415
tranpoints = 46635
accept = 40435
rejected = 6200
matrix size = 353
fillins = 987
solver = Normal
Thread vector: 40.3/29.6[2] 18.5/13.0[2] 9.3/7.5[2] 4.9/7.3[1]  2592/500
Matrix Compiler1: 82.86 KB object code size  30.9/19.9/[7.5]
Matrix Compiler2: 48.89 KB object code size  14.0/13.8/[4.5]

