Circuit: * C:\Users\Guido\Documents\GitHub\ASSDbueno\TP1\Ejercicio-6\Spice\FAA+SH+FR.asc

WARNING: Less than two connections to node N002.  This node is used by V2.
WARNING: Less than two connections to node N003.  This node is used by V8.
Per .tran options, skipping operating point for transient analysis.
.step amp=1 freqs=20000 dts=5
Changing Tseed to 1e-12
Changing Tseed to 1e-14
Changing Tseed to 1e-11
Changing Tseed to 1e-15
Changing Tseed to 1e-10
Changing Tseed to 1e-16
Changing Tseed to 1e-09
Changing Tseed to 1e-17
Changing Tseed to 1e-08
Changing Tseed to 1e-18
Changing Tseed to 1e-07
Changing Tseed to 1e-19
Heightened Def Con from 0 Changing Tseed to 1e-12
Changing Tseed to 1e-14
Changing Tseed to 1e-11
Changing Tseed to 1e-15
Changing Tseed to 1e-10
Changing Tseed to 1e-16
Changing Tseed to 1e-09
Changing Tseed to 1e-17
Changing Tseed to 1e-08
Changing Tseed to 1e-18
Changing Tseed to 1e-07
Changing Tseed to 1e-19
+Changing Tseed to 1e-12
Changing Tseed to 1e-14
Changing Tseed to 1e-11
Changing Tseed to 1e-15
Changing Tseed to 1e-10
Changing Tseed to 1e-16
Changing Tseed to 1e-09
Changing Tseed to 1e-17
Changing Tseed to 1e-08
Changing Tseed to 1e-18
Changing Tseed to 1e-07
Changing Tseed to 1e-19
+Changing Tseed to 1e-12
Changing Tseed to 1e-14
Changing Tseed to 1e-11
Changing Tseed to 1e-15
Changing Tseed to 1e-10
Changing Tseed to 1e-16
Changing Tseed to 1e-09
Changing Tseed to 1e-17
Changing Tseed to 1e-08
Changing Tseed to 1e-18
Changing Tseed to 1e-07
Changing Tseed to 1e-19
+Changing Tseed to 1e-12
Changing Tseed to 1e-14
Changing Tseed to 1e-11
Changing Tseed to 1e-15
Changing Tseed to 1e-10
Changing Tseed to 1e-16
Changing Tseed to 1e-09
Changing Tseed to 1e-17
Changing Tseed to 1e-08
Changing Tseed to 1e-18
Changing Tseed to 1e-07
Changing Tseed to 1e-19
+Changing Tseed to 1e-12
Changing Tseed to 1e-14
Changing Tseed to 1e-11
Changing Tseed to 1e-15
Changing Tseed to 1e-10
Changing Tseed to 1e-16
Changing Tseed to 1e-09
Changing Tseed to 1e-17
Changing Tseed to 1e-08
Changing Tseed to 1e-18
Changing Tseed to 1e-07
Changing Tseed to 1e-19
+Changing Tseed to 1e-12
Changing Tseed to 1e-14
Changing Tseed to 1e-11
Changing Tseed to 1e-15
Changing Tseed to 1e-10
Changing Tseed to 1e-16
Changing Tseed to 1e-09
Changing Tseed to 1e-17
Changing Tseed to 1e-08
Changing Tseed to 1e-18
Changing Tseed to 1e-07
Changing Tseed to 1e-19
+Changing Tseed to 1e-12
Changing Tseed to 1e-14
Changing Tseed to 1e-11
Changing Tseed to 1e-15
Changing Tseed to 1e-10
Changing Tseed to 1e-16
Changing Tseed to 1e-09
Changing Tseed to 1e-17
Changing Tseed to 1e-08
Changing Tseed to 1e-18
Changing Tseed to 1e-07
Changing Tseed to 1e-19
+Changing Tseed to 1e-12
Changing Tseed to 1e-14
Changing Tseed to 1e-11
Changing Tseed to 1e-15
Changing Tseed to 1e-10
Changing Tseed to 1e-16
Changing Tseed to 1e-09
Changing Tseed to 1e-17
Changing Tseed to 1e-08
Changing Tseed to 1e-18
Changing Tseed to 1e-07
Changing Tseed to 1e-19
+Changing Tseed to 1e-12
Changing Tseed to 1e-14
Changing Tseed to 1e-11
Changing Tseed to 1e-15
Changing Tseed to 1e-10
Changing Tseed to 1e-16
Changing Tseed to 1e-09
Changing Tseed to 1e-17
Changing Tseed to 1e-08
Changing Tseed to 1e-18
Changing Tseed to 1e-07
Changing Tseed to 1e-19
+Changing Tseed to 1e-12
Changing Tseed to 1e-14
Changing Tseed to 1e-11
Changing Tseed to 1e-15
Changing Tseed to 1e-10
Changing Tseed to 1e-16
Changing Tseed to 1e-09
Changing Tseed to 1e-17
Changing Tseed to 1e-08
Changing Tseed to 1e-18
Changing Tseed to 1e-07
Changing Tseed to 1e-19
+Changing Tseed to 1e-12
Changing Tseed to 1e-14
Changing Tseed to 1e-11
Changing Tseed to 1e-15
Changing Tseed to 1e-10
Changing Tseed to 1e-16
Changing Tseed to 1e-09
Changing Tseed to 1e-17
Changing Tseed to 1e-08
Changing Tseed to 1e-18
Changing Tseed to 1e-07
Changing Tseed to 1e-19
+Changing Tseed to 1e-12
Changing Tseed to 1e-14
Changing Tseed to 1e-11
Changing Tseed to 1e-15
Changing Tseed to 1e-10
Changing Tseed to 1e-16
Changing Tseed to 1e-09
Changing Tseed to 1e-17
Changing Tseed to 1e-08
Changing Tseed to 1e-18
Changing Tseed to 1e-07
Changing Tseed to 1e-19
+Changing Tseed to 1e-12
Changing Tseed to 1e-14
Changing Tseed to 1e-11
Changing Tseed to 1e-15
Changing Tseed to 1e-10
Changing Tseed to 1e-16
Changing Tseed to 1e-09
Changing Tseed to 1e-17
Changing Tseed to 1e-08
Changing Tseed to 1e-18
Changing Tseed to 1e-07
Changing Tseed to 1e-19
+Changing Tseed to 1e-12
Changing Tseed to 1e-14
Changing Tseed to 1e-11
Changing Tseed to 1e-15
Changing Tseed to 1e-10
Changing Tseed to 1e-16
Changing Tseed to 1e-09
Changing Tseed to 1e-17
Changing Tseed to 1e-08
Changing Tseed to 1e-18
Changing Tseed to 1e-07
Changing Tseed to 1e-19
+Changing Tseed to 1e-12
Changing Tseed to 1e-14
Changing Tseed to 1e-11
Changing Tseed to 1e-15
Changing Tseed to 1e-10
Changing Tseed to 1e-16
Changing Tseed to 1e-09
Changing Tseed to 1e-17
Changing Tseed to 1e-08
Changing Tseed to 1e-18
Changing Tseed to 1e-07
Changing Tseed to 1e-19
+Changing Tseed to 1e-12
Changing Tseed to 1e-14
Changing Tseed to 1e-11
Changing Tseed to 1e-15
Changing Tseed to 1e-10
Changing Tseed to 1e-16
Changing Tseed to 1e-09
Changing Tseed to 1e-17
Changing Tseed to 1e-08
Changing Tseed to 1e-18
Changing Tseed to 1e-07
Changing Tseed to 1e-19
+Changing Tseed to 1e-12
Changing Tseed to 1e-14
Changing Tseed to 1e-11
Changing Tseed to 1e-15
Changing Tseed to 1e-10
Changing Tseed to 1e-16
Changing Tseed to 1e-09
Changing Tseed to 1e-17
Changing Tseed to 1e-08
Changing Tseed to 1e-18
Changing Tseed to 1e-07
Changing Tseed to 1e-19
+Changing Tseed to 1e-12
Changing Tseed to 1e-14
Changing Tseed to 1e-11
Changing Tseed to 1e-15
Changing Tseed to 1e-10
Changing Tseed to 1e-16
Changing Tseed to 1e-09
Changing Tseed to 1e-17
Changing Tseed to 1e-08
Changing Tseed to 1e-18
Changing Tseed to 1e-07
Changing Tseed to 1e-19
+Changing Tseed to 1e-12
Changing Tseed to 1e-14
Changing Tseed to 1e-11
Changing Tseed to 1e-15
Changing Tseed to 1e-10
Changing Tseed to 1e-16
Changing Tseed to 1e-09
Changing Tseed to 1e-17
Changing Tseed to 1e-08
Changing Tseed to 1e-18
Changing Tseed to 1e-07
Changing Tseed to 1e-19
+Changing Tseed to 1e-12
Changing Tseed to 1e-14
Changing Tseed to 1e-11
Changing Tseed to 1e-15
Changing Tseed to 1e-10
Changing Tseed to 1e-16
Changing Tseed to 1e-09
Changing Tseed to 1e-17
Changing Tseed to 1e-08
Changing Tseed to 1e-18
Changing Tseed to 1e-07
Changing Tseed to 1e-19
+Changing Tseed to 1e-12
Changing Tseed to 1e-14
Changing Tseed to 1e-11
Changing Tseed to 1e-15
Changing Tseed to 1e-10
Changing Tseed to 1e-16
Changing Tseed to 1e-09
Changing Tseed to 1e-17
Changing Tseed to 1e-08
Changing Tseed to 1e-18
Changing Tseed to 1e-07
Changing Tseed to 1e-19
+to 1.125e-13
Heightened Def Con from 1.125e-13 +++++++++++to 1.12359e-11
Heightened Def Con from 1.12359e-11 to 1.13624e-09
.step amp=1.5 freqs=20000 dts=5
.step amp=2 freqs=20000 dts=5
.step amp=2.5 freqs=20000 dts=5
.step amp=3 freqs=20000 dts=5
.step amp=3.5 freqs=20000 dts=5
.step amp=4 freqs=20000 dts=5
.step amp=4.5 freqs=20000 dts=5
.step amp=5 freqs=20000 dts=5
.step amp=1 freqs=20250 dts=5
.step amp=1.5 freqs=20250 dts=5
.step amp=2 freqs=20250 dts=5
.step amp=2.5 freqs=20250 dts=5
.step amp=3 freqs=20250 dts=5
.step amp=3.5 freqs=20250 dts=5
.step amp=4 freqs=20250 dts=5
.step amp=4.5 freqs=20250 dts=5
.step amp=5 freqs=20250 dts=5
.step amp=1 freqs=20500 dts=5
.step amp=1.5 freqs=20500 dts=5
.step amp=2 freqs=20500 dts=5
.step amp=2.5 freqs=20500 dts=5
.step amp=3 freqs=20500 dts=5
.step amp=3.5 freqs=20500 dts=5
.step amp=4 freqs=20500 dts=5
.step amp=4.5 freqs=20500 dts=5
.step amp=5 freqs=20500 dts=5
.step amp=1 freqs=20750 dts=5
.step amp=1.5 freqs=20750 dts=5
.step amp=2 freqs=20750 dts=5
.step amp=2.5 freqs=20750 dts=5
.step amp=3 freqs=20750 dts=5
.step amp=3.5 freqs=20750 dts=5
.step amp=4 freqs=20750 dts=5
.step amp=4.5 freqs=20750 dts=5
.step amp=5 freqs=20750 dts=5
.step amp=1 freqs=21000 dts=5
.step amp=1.5 freqs=21000 dts=5
.step amp=2 freqs=21000 dts=5
.step amp=2.5 freqs=21000 dts=5
.step amp=3 freqs=21000 dts=5
.step amp=3.5 freqs=21000 dts=5
.step amp=4 freqs=21000 dts=5
.step amp=4.5 freqs=21000 dts=5
.step amp=5 freqs=21000 dts=5
.step amp=1 freqs=21250 dts=5
.step amp=1.5 freqs=21250 dts=5
.step amp=2 freqs=21250 dts=5
.step amp=2.5 freqs=21250 dts=5
.step amp=3 freqs=21250 dts=5
.step amp=3.5 freqs=21250 dts=5
.step amp=4 freqs=21250 dts=5
.step amp=4.5 freqs=21250 dts=5
.step amp=5 freqs=21250 dts=5
.step amp=1 freqs=21500 dts=5
.step amp=1.5 freqs=21500 dts=5
.step amp=2 freqs=21500 dts=5
.step amp=2.5 freqs=21500 dts=5
.step amp=3 freqs=21500 dts=5
.step amp=3.5 freqs=21500 dts=5
.step amp=4 freqs=21500 dts=5
.step amp=4.5 freqs=21500 dts=5
.step amp=5 freqs=21500 dts=5
.step amp=1 freqs=21750 dts=5
.step amp=1.5 freqs=21750 dts=5
.step amp=2 freqs=21750 dts=5
.step amp=2.5 freqs=21750 dts=5
.step amp=3 freqs=21750 dts=5
.step amp=3.5 freqs=21750 dts=5
.step amp=4 freqs=21750 dts=5
.step amp=4.5 freqs=21750 dts=5
.step amp=5 freqs=21750 dts=5
.step amp=1 freqs=22000 dts=5
.step amp=1.5 freqs=22000 dts=5
.step amp=2 freqs=22000 dts=5
.step amp=2.5 freqs=22000 dts=5
.step amp=3 freqs=22000 dts=5
.step amp=3.5 freqs=22000 dts=5
.step amp=4 freqs=22000 dts=5
.step amp=4.5 freqs=22000 dts=5
.step amp=5 freqs=22000 dts=5
.step amp=1 freqs=22250 dts=5
.step amp=1.5 freqs=22250 dts=5
.step amp=2 freqs=22250 dts=5
.step amp=2.5 freqs=22250 dts=5
.step amp=3 freqs=22250 dts=5
.step amp=3.5 freqs=22250 dts=5
.step amp=4 freqs=22250 dts=5
.step amp=4.5 freqs=22250 dts=5
.step amp=5 freqs=22250 dts=5
.step amp=1 freqs=22500 dts=5
.step amp=1.5 freqs=22500 dts=5
.step amp=2 freqs=22500 dts=5
.step amp=2.5 freqs=22500 dts=5
.step amp=3 freqs=22500 dts=5
.step amp=3.5 freqs=22500 dts=5
.step amp=4 freqs=22500 dts=5
.step amp=4.5 freqs=22500 dts=5
.step amp=5 freqs=22500 dts=5
.step amp=1 freqs=22750 dts=5
.step amp=1.5 freqs=22750 dts=5
.step amp=2 freqs=22750 dts=5
.step amp=2.5 freqs=22750 dts=5
.step amp=3 freqs=22750 dts=5
.step amp=3.5 freqs=22750 dts=5
.step amp=4 freqs=22750 dts=5
.step amp=4.5 freqs=22750 dts=5
.step amp=5 freqs=22750 dts=5
.step amp=1 freqs=23000 dts=5
.step amp=1.5 freqs=23000 dts=5
.step amp=2 freqs=23000 dts=5
.step amp=2.5 freqs=23000 dts=5
.step amp=3 freqs=23000 dts=5
.step amp=3.5 freqs=23000 dts=5
.step amp=4 freqs=23000 dts=5
.step amp=4.5 freqs=23000 dts=5
.step amp=5 freqs=23000 dts=5
.step amp=1 freqs=23250 dts=5
.step amp=1.5 freqs=23250 dts=5
.step amp=2 freqs=23250 dts=5
.step amp=2.5 freqs=23250 dts=5
.step amp=3 freqs=23250 dts=5
.step amp=3.5 freqs=23250 dts=5
.step amp=4 freqs=23250 dts=5
.step amp=4.5 freqs=23250 dts=5
.step amp=5 freqs=23250 dts=5
.step amp=1 freqs=23500 dts=5
.step amp=1.5 freqs=23500 dts=5
.step amp=2 freqs=23500 dts=5
.step amp=2.5 freqs=23500 dts=5
.step amp=3 freqs=23500 dts=5
.step amp=3.5 freqs=23500 dts=5
.step amp=4 freqs=23500 dts=5
.step amp=4.5 freqs=23500 dts=5
.step amp=5 freqs=23500 dts=5
.step amp=1 freqs=23750 dts=5
.step amp=1.5 freqs=23750 dts=5
.step amp=2 freqs=23750 dts=5
.step amp=2.5 freqs=23750 dts=5
.step amp=3 freqs=23750 dts=5
.step amp=3.5 freqs=23750 dts=5
.step amp=4 freqs=23750 dts=5
.step amp=4.5 freqs=23750 dts=5
.step amp=5 freqs=23750 dts=5
.step amp=1 freqs=24000 dts=5
.step amp=1.5 freqs=24000 dts=5
.step amp=2 freqs=24000 dts=5
.step amp=2.5 freqs=24000 dts=5
.step amp=3 freqs=24000 dts=5
.step amp=3.5 freqs=24000 dts=5
.step amp=4 freqs=24000 dts=5
.step amp=4.5 freqs=24000 dts=5
.step amp=5 freqs=24000 dts=5
.step amp=1 freqs=24250 dts=5
.step amp=1.5 freqs=24250 dts=5
.step amp=2 freqs=24250 dts=5
.step amp=2.5 freqs=24250 dts=5
.step amp=3 freqs=24250 dts=5
.step amp=3.5 freqs=24250 dts=5
.step amp=4 freqs=24250 dts=5
.step amp=4.5 freqs=24250 dts=5
.step amp=5 freqs=24250 dts=5
.step amp=1 freqs=24500 dts=5
.step amp=1.5 freqs=24500 dts=5
.step amp=2 freqs=24500 dts=5
.step amp=2.5 freqs=24500 dts=5
.step amp=3 freqs=24500 dts=5
.step amp=3.5 freqs=24500 dts=5
.step amp=4 freqs=24500 dts=5
.step amp=4.5 freqs=24500 dts=5
.step amp=5 freqs=24500 dts=5
.step amp=1 freqs=24750 dts=5
.step amp=1.5 freqs=24750 dts=5
.step amp=2 freqs=24750 dts=5
.step amp=2.5 freqs=24750 dts=5
.step amp=3 freqs=24750 dts=5
.step amp=3.5 freqs=24750 dts=5
.step amp=4 freqs=24750 dts=5
.step amp=4.5 freqs=24750 dts=5
.step amp=5 freqs=24750 dts=5
.step amp=1 freqs=25000 dts=5
.step amp=1.5 freqs=25000 dts=5
.step amp=2 freqs=25000 dts=5
.step amp=2.5 freqs=25000 dts=5
.step amp=3 freqs=25000 dts=5
.step amp=3.5 freqs=25000 dts=5
.step amp=4 freqs=25000 dts=5
.step amp=4.5 freqs=25000 dts=5
.step amp=5 freqs=25000 dts=5
.step amp=1 freqs=20000 dts=10
.step amp=1.5 freqs=20000 dts=10
.step amp=2 freqs=20000 dts=10
.step amp=2.5 freqs=20000 dts=10
.step amp=3 freqs=20000 dts=10
.step amp=3.5 freqs=20000 dts=10
.step amp=4 freqs=20000 dts=10
.step amp=4.5 freqs=20000 dts=10
.step amp=5 freqs=20000 dts=10
.step amp=1 freqs=20250 dts=10
.step amp=1.5 freqs=20250 dts=10
.step amp=2 freqs=20250 dts=10
.step amp=2.5 freqs=20250 dts=10
.step amp=3 freqs=20250 dts=10
.step amp=3.5 freqs=20250 dts=10
.step amp=4 freqs=20250 dts=10
.step amp=4.5 freqs=20250 dts=10
.step amp=5 freqs=20250 dts=10
.step amp=1 freqs=20500 dts=10
.step amp=1.5 freqs=20500 dts=10
.step amp=2 freqs=20500 dts=10
.step amp=2.5 freqs=20500 dts=10
.step amp=3 freqs=20500 dts=10
.step amp=3.5 freqs=20500 dts=10
.step amp=4 freqs=20500 dts=10
.step amp=4.5 freqs=20500 dts=10
.step amp=5 freqs=20500 dts=10
.step amp=1 freqs=20750 dts=10
.step amp=1.5 freqs=20750 dts=10
.step amp=2 freqs=20750 dts=10
.step amp=2.5 freqs=20750 dts=10
.step amp=3 freqs=20750 dts=10
.step amp=3.5 freqs=20750 dts=10
.step amp=4 freqs=20750 dts=10
.step amp=4.5 freqs=20750 dts=10
.step amp=5 freqs=20750 dts=10
.step amp=1 freqs=21000 dts=10
.step amp=1.5 freqs=21000 dts=10
.step amp=2 freqs=21000 dts=10
.step amp=2.5 freqs=21000 dts=10
.step amp=3 freqs=21000 dts=10
.step amp=3.5 freqs=21000 dts=10
.step amp=4 freqs=21000 dts=10
.step amp=4.5 freqs=21000 dts=10
.step amp=5 freqs=21000 dts=10
.step amp=1 freqs=21250 dts=10
.step amp=1.5 freqs=21250 dts=10
.step amp=2 freqs=21250 dts=10
.step amp=2.5 freqs=21250 dts=10
.step amp=3 freqs=21250 dts=10
.step amp=3.5 freqs=21250 dts=10
.step amp=4 freqs=21250 dts=10
.step amp=4.5 freqs=21250 dts=10
.step amp=5 freqs=21250 dts=10
.step amp=1 freqs=21500 dts=10
.step amp=1.5 freqs=21500 dts=10
.step amp=2 freqs=21500 dts=10
.step amp=2.5 freqs=21500 dts=10
.step amp=3 freqs=21500 dts=10
.step amp=3.5 freqs=21500 dts=10
.step amp=4 freqs=21500 dts=10
.step amp=4.5 freqs=21500 dts=10
.step amp=5 freqs=21500 dts=10
.step amp=1 freqs=21750 dts=10
.step amp=1.5 freqs=21750 dts=10
.step amp=2 freqs=21750 dts=10
.step amp=2.5 freqs=21750 dts=10
.step amp=3 freqs=21750 dts=10
.step amp=3.5 freqs=21750 dts=10
.step amp=4 freqs=21750 dts=10
.step amp=4.5 freqs=21750 dts=10
.step amp=5 freqs=21750 dts=10
.step amp=1 freqs=22000 dts=10
.step amp=1.5 freqs=22000 dts=10
.step amp=2 freqs=22000 dts=10
.step amp=2.5 freqs=22000 dts=10
.step amp=3 freqs=22000 dts=10
.step amp=3.5 freqs=22000 dts=10
.step amp=4 freqs=22000 dts=10
.step amp=4.5 freqs=22000 dts=10
.step amp=5 freqs=22000 dts=10
.step amp=1 freqs=22250 dts=10
.step amp=1.5 freqs=22250 dts=10
.step amp=2 freqs=22250 dts=10
.step amp=2.5 freqs=22250 dts=10
.step amp=3 freqs=22250 dts=10
.step amp=3.5 freqs=22250 dts=10
.step amp=4 freqs=22250 dts=10
.step amp=4.5 freqs=22250 dts=10
.step amp=5 freqs=22250 dts=10
.step amp=1 freqs=22500 dts=10
.step amp=1.5 freqs=22500 dts=10
.step amp=2 freqs=22500 dts=10
.step amp=2.5 freqs=22500 dts=10
.step amp=3 freqs=22500 dts=10
.step amp=3.5 freqs=22500 dts=10
.step amp=4 freqs=22500 dts=10
.step amp=4.5 freqs=22500 dts=10
.step amp=5 freqs=22500 dts=10
.step amp=1 freqs=22750 dts=10
.step amp=1.5 freqs=22750 dts=10
.step amp=2 freqs=22750 dts=10
.step amp=2.5 freqs=22750 dts=10
.step amp=3 freqs=22750 dts=10
.step amp=3.5 freqs=22750 dts=10
.step amp=4 freqs=22750 dts=10
.step amp=4.5 freqs=22750 dts=10
.step amp=5 freqs=22750 dts=10
.step amp=1 freqs=23000 dts=10
.step amp=1.5 freqs=23000 dts=10
.step amp=2 freqs=23000 dts=10
.step amp=2.5 freqs=23000 dts=10
.step amp=3 freqs=23000 dts=10
.step amp=3.5 freqs=23000 dts=10
.step amp=4 freqs=23000 dts=10
.step amp=4.5 freqs=23000 dts=10
.step amp=5 freqs=23000 dts=10
.step amp=1 freqs=23250 dts=10
.step amp=1.5 freqs=23250 dts=10
.step amp=2 freqs=23250 dts=10
.step amp=2.5 freqs=23250 dts=10
.step amp=3 freqs=23250 dts=10
.step amp=3.5 freqs=23250 dts=10
.step amp=4 freqs=23250 dts=10
.step amp=4.5 freqs=23250 dts=10
.step amp=5 freqs=23250 dts=10
.step amp=1 freqs=23500 dts=10
.step amp=1.5 freqs=23500 dts=10
.step amp=2 freqs=23500 dts=10
.step amp=2.5 freqs=23500 dts=10
.step amp=3 freqs=23500 dts=10
.step amp=3.5 freqs=23500 dts=10
.step amp=4 freqs=23500 dts=10
.step amp=4.5 freqs=23500 dts=10
.step amp=5 freqs=23500 dts=10
.step amp=1 freqs=23750 dts=10
.step amp=1.5 freqs=23750 dts=10
.step amp=2 freqs=23750 dts=10
.step amp=2.5 freqs=23750 dts=10
.step amp=3 freqs=23750 dts=10
.step amp=3.5 freqs=23750 dts=10
.step amp=4 freqs=23750 dts=10
.step amp=4.5 freqs=23750 dts=10
.step amp=5 freqs=23750 dts=10
.step amp=1 freqs=24000 dts=10
.step amp=1.5 freqs=24000 dts=10
.step amp=2 freqs=24000 dts=10
.step amp=2.5 freqs=24000 dts=10
.step amp=3 freqs=24000 dts=10
.step amp=3.5 freqs=24000 dts=10
.step amp=4 freqs=24000 dts=10
.step amp=4.5 freqs=24000 dts=10
.step amp=5 freqs=24000 dts=10
.step amp=1 freqs=24250 dts=10
.step amp=1.5 freqs=24250 dts=10
.step amp=2 freqs=24250 dts=10
.step amp=2.5 freqs=24250 dts=10
.step amp=3 freqs=24250 dts=10
.step amp=3.5 freqs=24250 dts=10
.step amp=4 freqs=24250 dts=10
.step amp=4.5 freqs=24250 dts=10
.step amp=5 freqs=24250 dts=10
.step amp=1 freqs=24500 dts=10
.step amp=1.5 freqs=24500 dts=10
.step amp=2 freqs=24500 dts=10
.step amp=2.5 freqs=24500 dts=10
.step amp=3 freqs=24500 dts=10
.step amp=3.5 freqs=24500 dts=10
.step amp=4 freqs=24500 dts=10
.step amp=4.5 freqs=24500 dts=10
.step amp=5 freqs=24500 dts=10
.step amp=1 freqs=24750 dts=10
.step amp=1.5 freqs=24750 dts=10
.step amp=2 freqs=24750 dts=10
.step amp=2.5 freqs=24750 dts=10
.step amp=3 freqs=24750 dts=10
.step amp=3.5 freqs=24750 dts=10
.step amp=4 freqs=24750 dts=10
.step amp=4.5 freqs=24750 dts=10
.step amp=5 freqs=24750 dts=10
.step amp=1 freqs=25000 dts=10
.step amp=1.5 freqs=25000 dts=10
.step amp=2 freqs=25000 dts=10
.step amp=2.5 freqs=25000 dts=10
.step amp=3 freqs=25000 dts=10
.step amp=3.5 freqs=25000 dts=10
.step amp=4 freqs=25000 dts=10
.step amp=4.5 freqs=25000 dts=10
.step amp=5 freqs=25000 dts=10
.step amp=1 freqs=20000 dts=15
.step amp=1.5 freqs=20000 dts=15
.step amp=2 freqs=20000 dts=15
.step amp=2.5 freqs=20000 dts=15
.step amp=3 freqs=20000 dts=15
.step amp=3.5 freqs=20000 dts=15
.step amp=4 freqs=20000 dts=15
.step amp=4.5 freqs=20000 dts=15
.step amp=5 freqs=20000 dts=15
.step amp=1 freqs=20250 dts=15
.step amp=1.5 freqs=20250 dts=15
.step amp=2 freqs=20250 dts=15
.step amp=2.5 freqs=20250 dts=15
.step amp=3 freqs=20250 dts=15
.step amp=3.5 freqs=20250 dts=15
.step amp=4 freqs=20250 dts=15
.step amp=4.5 freqs=20250 dts=15
.step amp=5 freqs=20250 dts=15
.step amp=1 freqs=20500 dts=15
.step amp=1.5 freqs=20500 dts=15
.step amp=2 freqs=20500 dts=15
.step amp=2.5 freqs=20500 dts=15
.step amp=3 freqs=20500 dts=15
.step amp=3.5 freqs=20500 dts=15
.step amp=4 freqs=20500 dts=15
.step amp=4.5 freqs=20500 dts=15
.step amp=5 freqs=20500 dts=15
.step amp=1 freqs=20750 dts=15
.step amp=1.5 freqs=20750 dts=15
.step amp=2 freqs=20750 dts=15
.step amp=2.5 freqs=20750 dts=15
.step amp=3 freqs=20750 dts=15
.step amp=3.5 freqs=20750 dts=15
.step amp=4 freqs=20750 dts=15
.step amp=4.5 freqs=20750 dts=15
.step amp=5 freqs=20750 dts=15
.step amp=1 freqs=21000 dts=15
.step amp=1.5 freqs=21000 dts=15
.step amp=2 freqs=21000 dts=15
.step amp=2.5 freqs=21000 dts=15
.step amp=3 freqs=21000 dts=15
.step amp=3.5 freqs=21000 dts=15
.step amp=4 freqs=21000 dts=15
.step amp=4.5 freqs=21000 dts=15
.step amp=5 freqs=21000 dts=15
.step amp=1 freqs=21250 dts=15
.step amp=1.5 freqs=21250 dts=15
.step amp=2 freqs=21250 dts=15
.step amp=2.5 freqs=21250 dts=15
.step amp=3 freqs=21250 dts=15
.step amp=3.5 freqs=21250 dts=15
.step amp=4 freqs=21250 dts=15
.step amp=4.5 freqs=21250 dts=15
.step amp=5 freqs=21250 dts=15
.step amp=1 freqs=21500 dts=15
.step amp=1.5 freqs=21500 dts=15
.step amp=2 freqs=21500 dts=15
.step amp=2.5 freqs=21500 dts=15
.step amp=3 freqs=21500 dts=15
.step amp=3.5 freqs=21500 dts=15
.step amp=4 freqs=21500 dts=15
.step amp=4.5 freqs=21500 dts=15
.step amp=5 freqs=21500 dts=15
.step amp=1 freqs=21750 dts=15
.step amp=1.5 freqs=21750 dts=15
.step amp=2 freqs=21750 dts=15
.step amp=2.5 freqs=21750 dts=15
.step amp=3 freqs=21750 dts=15
.step amp=3.5 freqs=21750 dts=15
.step amp=4 freqs=21750 dts=15
.step amp=4.5 freqs=21750 dts=15
.step amp=5 freqs=21750 dts=15
.step amp=1 freqs=22000 dts=15
.step amp=1.5 freqs=22000 dts=15
.step amp=2 freqs=22000 dts=15
.step amp=2.5 freqs=22000 dts=15
.step amp=3 freqs=22000 dts=15
.step amp=3.5 freqs=22000 dts=15
.step amp=4 freqs=22000 dts=15
.step amp=4.5 freqs=22000 dts=15
.step amp=5 freqs=22000 dts=15
.step amp=1 freqs=22250 dts=15
.step amp=1.5 freqs=22250 dts=15
.step amp=2 freqs=22250 dts=15
.step amp=2.5 freqs=22250 dts=15
.step amp=3 freqs=22250 dts=15
.step amp=3.5 freqs=22250 dts=15
.step amp=4 freqs=22250 dts=15
.step amp=4.5 freqs=22250 dts=15
.step amp=5 freqs=22250 dts=15
.step amp=1 freqs=22500 dts=15
.step amp=1.5 freqs=22500 dts=15
.step amp=2 freqs=22500 dts=15
.step amp=2.5 freqs=22500 dts=15
.step amp=3 freqs=22500 dts=15
.step amp=3.5 freqs=22500 dts=15
.step amp=4 freqs=22500 dts=15
.step amp=4.5 freqs=22500 dts=15
.step amp=5 freqs=22500 dts=15
.step amp=1 freqs=22750 dts=15
.step amp=1.5 freqs=22750 dts=15
.step amp=2 freqs=22750 dts=15
.step amp=2.5 freqs=22750 dts=15
.step amp=3 freqs=22750 dts=15
.step amp=3.5 freqs=22750 dts=15
.step amp=4 freqs=22750 dts=15
.step amp=4.5 freqs=22750 dts=15
.step amp=5 freqs=22750 dts=15
.step amp=1 freqs=23000 dts=15
.step amp=1.5 freqs=23000 dts=15
.step amp=2 freqs=23000 dts=15
.step amp=2.5 freqs=23000 dts=15
.step amp=3 freqs=23000 dts=15
.step amp=3.5 freqs=23000 dts=15
.step amp=4 freqs=23000 dts=15
.step amp=4.5 freqs=23000 dts=15
.step amp=5 freqs=23000 dts=15
.step amp=1 freqs=23250 dts=15
.step amp=1.5 freqs=23250 dts=15
.step amp=2 freqs=23250 dts=15
.step amp=2.5 freqs=23250 dts=15
.step amp=3 freqs=23250 dts=15
.step amp=3.5 freqs=23250 dts=15
.step amp=4 freqs=23250 dts=15
.step amp=4.5 freqs=23250 dts=15
.step amp=5 freqs=23250 dts=15
.step amp=1 freqs=23500 dts=15
.step amp=1.5 freqs=23500 dts=15
.step amp=2 freqs=23500 dts=15
.step amp=2.5 freqs=23500 dts=15
.step amp=3 freqs=23500 dts=15
.step amp=3.5 freqs=23500 dts=15
.step amp=4 freqs=23500 dts=15
.step amp=4.5 freqs=23500 dts=15
.step amp=5 freqs=23500 dts=15
.step amp=1 freqs=23750 dts=15
.step amp=1.5 freqs=23750 dts=15
.step amp=2 freqs=23750 dts=15
.step amp=2.5 freqs=23750 dts=15
.step amp=3 freqs=23750 dts=15
.step amp=3.5 freqs=23750 dts=15
.step amp=4 freqs=23750 dts=15
.step amp=4.5 freqs=23750 dts=15
.step amp=5 freqs=23750 dts=15
.step amp=1 freqs=24000 dts=15
.step amp=1.5 freqs=24000 dts=15
.step amp=2 freqs=24000 dts=15
.step amp=2.5 freqs=24000 dts=15
.step amp=3 freqs=24000 dts=15
.step amp=3.5 freqs=24000 dts=15
.step amp=4 freqs=24000 dts=15
.step amp=4.5 freqs=24000 dts=15
.step amp=5 freqs=24000 dts=15
.step amp=1 freqs=24250 dts=15
.step amp=1.5 freqs=24250 dts=15
.step amp=2 freqs=24250 dts=15
.step amp=2.5 freqs=24250 dts=15
.step amp=3 freqs=24250 dts=15
.step amp=3.5 freqs=24250 dts=15
.step amp=4 freqs=24250 dts=15
.step amp=4.5 freqs=24250 dts=15
.step amp=5 freqs=24250 dts=15
.step amp=1 freqs=24500 dts=15
.step amp=1.5 freqs=24500 dts=15
.step amp=2 freqs=24500 dts=15
.step amp=2.5 freqs=24500 dts=15
.step amp=3 freqs=24500 dts=15
.step amp=3.5 freqs=24500 dts=15
.step amp=4 freqs=24500 dts=15
.step amp=4.5 freqs=24500 dts=15
.step amp=5 freqs=24500 dts=15
.step amp=1 freqs=24750 dts=15
.step amp=1.5 freqs=24750 dts=15
.step amp=2 freqs=24750 dts=15
.step amp=2.5 freqs=24750 dts=15
.step amp=3 freqs=24750 dts=15
.step amp=3.5 freqs=24750 dts=15
.step amp=4 freqs=24750 dts=15
.step amp=4.5 freqs=24750 dts=15
.step amp=5 freqs=24750 dts=15
.step amp=1 freqs=25000 dts=15
.step amp=1.5 freqs=25000 dts=15
.step amp=2 freqs=25000 dts=15
.step amp=2.5 freqs=25000 dts=15
.step amp=3 freqs=25000 dts=15
.step amp=3.5 freqs=25000 dts=15
.step amp=4 freqs=25000 dts=15
.step amp=4.5 freqs=25000 dts=15
.step amp=5 freqs=25000 dts=15
.step amp=1 freqs=20000 dts=20
.step amp=1.5 freqs=20000 dts=20
.step amp=2 freqs=20000 dts=20
.step amp=2.5 freqs=20000 dts=20
.step amp=3 freqs=20000 dts=20
.step amp=3.5 freqs=20000 dts=20
.step amp=4 freqs=20000 dts=20
.step amp=4.5 freqs=20000 dts=20
.step amp=5 freqs=20000 dts=20
.step amp=1 freqs=20250 dts=20
.step amp=1.5 freqs=20250 dts=20
.step amp=2 freqs=20250 dts=20
.step amp=2.5 freqs=20250 dts=20
.step amp=3 freqs=20250 dts=20
.step amp=3.5 freqs=20250 dts=20
.step amp=4 freqs=20250 dts=20
.step amp=4.5 freqs=20250 dts=20
.step amp=5 freqs=20250 dts=20
.step amp=1 freqs=20500 dts=20
.step amp=1.5 freqs=20500 dts=20
.step amp=2 freqs=20500 dts=20
.step amp=2.5 freqs=20500 dts=20
.step amp=3 freqs=20500 dts=20
.step amp=3.5 freqs=20500 dts=20
.step amp=4 freqs=20500 dts=20
.step amp=4.5 freqs=20500 dts=20
.step amp=5 freqs=20500 dts=20
.step amp=1 freqs=20750 dts=20
.step amp=1.5 freqs=20750 dts=20
.step amp=2 freqs=20750 dts=20
.step amp=2.5 freqs=20750 dts=20
.step amp=3 freqs=20750 dts=20
.step amp=3.5 freqs=20750 dts=20
.step amp=4 freqs=20750 dts=20
.step amp=4.5 freqs=20750 dts=20
.step amp=5 freqs=20750 dts=20
.step amp=1 freqs=21000 dts=20
.step amp=1.5 freqs=21000 dts=20
.step amp=2 freqs=21000 dts=20
.step amp=2.5 freqs=21000 dts=20
.step amp=3 freqs=21000 dts=20
.step amp=3.5 freqs=21000 dts=20
.step amp=4 freqs=21000 dts=20
.step amp=4.5 freqs=21000 dts=20
.step amp=5 freqs=21000 dts=20
.step amp=1 freqs=21250 dts=20
.step amp=1.5 freqs=21250 dts=20
.step amp=2 freqs=21250 dts=20
.step amp=2.5 freqs=21250 dts=20
.step amp=3 freqs=21250 dts=20
.step amp=3.5 freqs=21250 dts=20
.step amp=4 freqs=21250 dts=20
.step amp=4.5 freqs=21250 dts=20
.step amp=5 freqs=21250 dts=20
.step amp=1 freqs=21500 dts=20
.step amp=1.5 freqs=21500 dts=20
.step amp=2 freqs=21500 dts=20
.step amp=2.5 freqs=21500 dts=20
.step amp=3 freqs=21500 dts=20
.step amp=3.5 freqs=21500 dts=20
.step amp=4 freqs=21500 dts=20
.step amp=4.5 freqs=21500 dts=20
.step amp=5 freqs=21500 dts=20
.step amp=1 freqs=21750 dts=20
.step amp=1.5 freqs=21750 dts=20
.step amp=2 freqs=21750 dts=20
.step amp=2.5 freqs=21750 dts=20
.step amp=3 freqs=21750 dts=20
.step amp=3.5 freqs=21750 dts=20
.step amp=4 freqs=21750 dts=20
.step amp=4.5 freqs=21750 dts=20
.step amp=5 freqs=21750 dts=20
.step amp=1 freqs=22000 dts=20
.step amp=1.5 freqs=22000 dts=20
.step amp=2 freqs=22000 dts=20
.step amp=2.5 freqs=22000 dts=20
.step amp=3 freqs=22000 dts=20
.step amp=3.5 freqs=22000 dts=20
.step amp=4 freqs=22000 dts=20
.step amp=4.5 freqs=22000 dts=20
.step amp=5 freqs=22000 dts=20
.step amp=1 freqs=22250 dts=20
.step amp=1.5 freqs=22250 dts=20
.step amp=2 freqs=22250 dts=20
.step amp=2.5 freqs=22250 dts=20
.step amp=3 freqs=22250 dts=20
.step amp=3.5 freqs=22250 dts=20
.step amp=4 freqs=22250 dts=20
.step amp=4.5 freqs=22250 dts=20
.step amp=5 freqs=22250 dts=20
.step amp=1 freqs=22500 dts=20
.step amp=1.5 freqs=22500 dts=20
.step amp=2 freqs=22500 dts=20
.step amp=2.5 freqs=22500 dts=20
.step amp=3 freqs=22500 dts=20
.step amp=3.5 freqs=22500 dts=20
.step amp=4 freqs=22500 dts=20
.step amp=4.5 freqs=22500 dts=20
.step amp=5 freqs=22500 dts=20
.step amp=1 freqs=22750 dts=20
.step amp=1.5 freqs=22750 dts=20
.step amp=2 freqs=22750 dts=20
.step amp=2.5 freqs=22750 dts=20
.step amp=3 freqs=22750 dts=20
.step amp=3.5 freqs=22750 dts=20
.step amp=4 freqs=22750 dts=20
.step amp=4.5 freqs=22750 dts=20
.step amp=5 freqs=22750 dts=20
.step amp=1 freqs=23000 dts=20
.step amp=1.5 freqs=23000 dts=20
.step amp=2 freqs=23000 dts=20
.step amp=2.5 freqs=23000 dts=20
.step amp=3 freqs=23000 dts=20
.step amp=3.5 freqs=23000 dts=20
.step amp=4 freqs=23000 dts=20
.step amp=4.5 freqs=23000 dts=20
.step amp=5 freqs=23000 dts=20
.step amp=1 freqs=23250 dts=20
.step amp=1.5 freqs=23250 dts=20
.step amp=2 freqs=23250 dts=20
.step amp=2.5 freqs=23250 dts=20
.step amp=3 freqs=23250 dts=20
.step amp=3.5 freqs=23250 dts=20
.step amp=4 freqs=23250 dts=20
.step amp=4.5 freqs=23250 dts=20
.step amp=5 freqs=23250 dts=20
.step amp=1 freqs=23500 dts=20
.step amp=1.5 freqs=23500 dts=20
.step amp=2 freqs=23500 dts=20
.step amp=2.5 freqs=23500 dts=20
.step amp=3 freqs=23500 dts=20
.step amp=3.5 freqs=23500 dts=20
.step amp=4 freqs=23500 dts=20
.step amp=4.5 freqs=23500 dts=20
.step amp=5 freqs=23500 dts=20
.step amp=1 freqs=23750 dts=20
.step amp=1.5 freqs=23750 dts=20
.step amp=2 freqs=23750 dts=20
.step amp=2.5 freqs=23750 dts=20
.step amp=3 freqs=23750 dts=20
.step amp=3.5 freqs=23750 dts=20
.step amp=4 freqs=23750 dts=20
.step amp=4.5 freqs=23750 dts=20
.step amp=5 freqs=23750 dts=20
.step amp=1 freqs=24000 dts=20
.step amp=1.5 freqs=24000 dts=20
.step amp=2 freqs=24000 dts=20
.step amp=2.5 freqs=24000 dts=20
.step amp=3 freqs=24000 dts=20
.step amp=3.5 freqs=24000 dts=20
.step amp=4 freqs=24000 dts=20
.step amp=4.5 freqs=24000 dts=20
.step amp=5 freqs=24000 dts=20
.step amp=1 freqs=24250 dts=20
.step amp=1.5 freqs=24250 dts=20
.step amp=2 freqs=24250 dts=20
.step amp=2.5 freqs=24250 dts=20
.step amp=3 freqs=24250 dts=20
.step amp=3.5 freqs=24250 dts=20
.step amp=4 freqs=24250 dts=20
.step amp=4.5 freqs=24250 dts=20
.step amp=5 freqs=24250 dts=20
.step amp=1 freqs=24500 dts=20
.step amp=1.5 freqs=24500 dts=20
.step amp=2 freqs=24500 dts=20
.step amp=2.5 freqs=24500 dts=20
.step amp=3 freqs=24500 dts=20
.step amp=3.5 freqs=24500 dts=20
.step amp=4 freqs=24500 dts=20
.step amp=4.5 freqs=24500 dts=20
.step amp=5 freqs=24500 dts=20
.step amp=1 freqs=24750 dts=20
.step amp=1.5 freqs=24750 dts=20
.step amp=2 freqs=24750 dts=20
.step amp=2.5 freqs=24750 dts=20
.step amp=3 freqs=24750 dts=20
.step amp=3.5 freqs=24750 dts=20
.step amp=4 freqs=24750 dts=20
.step amp=4.5 freqs=24750 dts=20
.step amp=5 freqs=24750 dts=20
.step amp=1 freqs=25000 dts=20
.step amp=1.5 freqs=25000 dts=20
.step amp=2 freqs=25000 dts=20
.step amp=2.5 freqs=25000 dts=20
.step amp=3 freqs=25000 dts=20
.step amp=3.5 freqs=25000 dts=20
.step amp=4 freqs=25000 dts=20
.step amp=4.5 freqs=25000 dts=20
.step amp=5 freqs=25000 dts=20
.step amp=1 freqs=20000 dts=25
.step amp=1.5 freqs=20000 dts=25
.step amp=2 freqs=20000 dts=25
.step amp=2.5 freqs=20000 dts=25
.step amp=3 freqs=20000 dts=25
.step amp=3.5 freqs=20000 dts=25
.step amp=4 freqs=20000 dts=25
.step amp=4.5 freqs=20000 dts=25
.step amp=5 freqs=20000 dts=25
.step amp=1 freqs=20250 dts=25
.step amp=1.5 freqs=20250 dts=25
.step amp=2 freqs=20250 dts=25
.step amp=2.5 freqs=20250 dts=25
.step amp=3 freqs=20250 dts=25
.step amp=3.5 freqs=20250 dts=25
.step amp=4 freqs=20250 dts=25
.step amp=4.5 freqs=20250 dts=25
.step amp=5 freqs=20250 dts=25
.step amp=1 freqs=20500 dts=25
.step amp=1.5 freqs=20500 dts=25
.step amp=2 freqs=20500 dts=25
.step amp=2.5 freqs=20500 dts=25
.step amp=3 freqs=20500 dts=25
.step amp=3.5 freqs=20500 dts=25
.step amp=4 freqs=20500 dts=25
.step amp=4.5 freqs=20500 dts=25
.step amp=5 freqs=20500 dts=25
.step amp=1 freqs=20750 dts=25
.step amp=1.5 freqs=20750 dts=25
.step amp=2 freqs=20750 dts=25
.step amp=2.5 freqs=20750 dts=25
.step amp=3 freqs=20750 dts=25
.step amp=3.5 freqs=20750 dts=25
.step amp=4 freqs=20750 dts=25
.step amp=4.5 freqs=20750 dts=25
.step amp=5 freqs=20750 dts=25
.step amp=1 freqs=21000 dts=25
.step amp=1.5 freqs=21000 dts=25
.step amp=2 freqs=21000 dts=25
.step amp=2.5 freqs=21000 dts=25
.step amp=3 freqs=21000 dts=25
.step amp=3.5 freqs=21000 dts=25
.step amp=4 freqs=21000 dts=25
.step amp=4.5 freqs=21000 dts=25
.step amp=5 freqs=21000 dts=25
.step amp=1 freqs=21250 dts=25
.step amp=1.5 freqs=21250 dts=25
.step amp=2 freqs=21250 dts=25
.step amp=2.5 freqs=21250 dts=25
.step amp=3 freqs=21250 dts=25
.step amp=3.5 freqs=21250 dts=25
.step amp=4 freqs=21250 dts=25
.step amp=4.5 freqs=21250 dts=25
.step amp=5 freqs=21250 dts=25
.step amp=1 freqs=21500 dts=25
.step amp=1.5 freqs=21500 dts=25
.step amp=2 freqs=21500 dts=25
.step amp=2.5 freqs=21500 dts=25
.step amp=3 freqs=21500 dts=25
.step amp=3.5 freqs=21500 dts=25
.step amp=4 freqs=21500 dts=25
.step amp=4.5 freqs=21500 dts=25
.step amp=5 freqs=21500 dts=25
.step amp=1 freqs=21750 dts=25
.step amp=1.5 freqs=21750 dts=25
.step amp=2 freqs=21750 dts=25
.step amp=2.5 freqs=21750 dts=25
.step amp=3 freqs=21750 dts=25
.step amp=3.5 freqs=21750 dts=25
.step amp=4 freqs=21750 dts=25
.step amp=4.5 freqs=21750 dts=25
.step amp=5 freqs=21750 dts=25
.step amp=1 freqs=22000 dts=25
.step amp=1.5 freqs=22000 dts=25
.step amp=2 freqs=22000 dts=25
.step amp=2.5 freqs=22000 dts=25
.step amp=3 freqs=22000 dts=25
.step amp=3.5 freqs=22000 dts=25
.step amp=4 freqs=22000 dts=25
.step amp=4.5 freqs=22000 dts=25
.step amp=5 freqs=22000 dts=25
.step amp=1 freqs=22250 dts=25
.step amp=1.5 freqs=22250 dts=25
.step amp=2 freqs=22250 dts=25
.step amp=2.5 freqs=22250 dts=25
.step amp=3 freqs=22250 dts=25
.step amp=3.5 freqs=22250 dts=25
.step amp=4 freqs=22250 dts=25
.step amp=4.5 freqs=22250 dts=25
.step amp=5 freqs=22250 dts=25
.step amp=1 freqs=22500 dts=25
.step amp=1.5 freqs=22500 dts=25
.step amp=2 freqs=22500 dts=25
.step amp=2.5 freqs=22500 dts=25
.step amp=3 freqs=22500 dts=25
.step amp=3.5 freqs=22500 dts=25
.step amp=4 freqs=22500 dts=25
.step amp=4.5 freqs=22500 dts=25
.step amp=5 freqs=22500 dts=25
.step amp=1 freqs=22750 dts=25
.step amp=1.5 freqs=22750 dts=25
.step amp=2 freqs=22750 dts=25
.step amp=2.5 freqs=22750 dts=25
.step amp=3 freqs=22750 dts=25
.step amp=3.5 freqs=22750 dts=25
.step amp=4 freqs=22750 dts=25
.step amp=4.5 freqs=22750 dts=25
.step amp=5 freqs=22750 dts=25
.step amp=1 freqs=23000 dts=25
.step amp=1.5 freqs=23000 dts=25
.step amp=2 freqs=23000 dts=25
.step amp=2.5 freqs=23000 dts=25
.step amp=3 freqs=23000 dts=25
.step amp=3.5 freqs=23000 dts=25
.step amp=4 freqs=23000 dts=25
.step amp=4.5 freqs=23000 dts=25
.step amp=5 freqs=23000 dts=25
.step amp=1 freqs=23250 dts=25
.step amp=1.5 freqs=23250 dts=25
.step amp=2 freqs=23250 dts=25
.step amp=2.5 freqs=23250 dts=25
.step amp=3 freqs=23250 dts=25
.step amp=3.5 freqs=23250 dts=25
.step amp=4 freqs=23250 dts=25
.step amp=4.5 freqs=23250 dts=25
.step amp=5 freqs=23250 dts=25
.step amp=1 freqs=23500 dts=25
.step amp=1.5 freqs=23500 dts=25
.step amp=2 freqs=23500 dts=25
.step amp=2.5 freqs=23500 dts=25
.step amp=3 freqs=23500 dts=25
.step amp=3.5 freqs=23500 dts=25
.step amp=4 freqs=23500 dts=25
.step amp=4.5 freqs=23500 dts=25
.step amp=5 freqs=23500 dts=25
.step amp=1 freqs=23750 dts=25
.step amp=1.5 freqs=23750 dts=25
.step amp=2 freqs=23750 dts=25
.step amp=2.5 freqs=23750 dts=25
.step amp=3 freqs=23750 dts=25
.step amp=3.5 freqs=23750 dts=25
.step amp=4 freqs=23750 dts=25
.step amp=4.5 freqs=23750 dts=25
.step amp=5 freqs=23750 dts=25
.step amp=1 freqs=24000 dts=25
.step amp=1.5 freqs=24000 dts=25
.step amp=2 freqs=24000 dts=25
.step amp=2.5 freqs=24000 dts=25
.step amp=3 freqs=24000 dts=25
.step amp=3.5 freqs=24000 dts=25
.step amp=4 freqs=24000 dts=25
.step amp=4.5 freqs=24000 dts=25
.step amp=5 freqs=24000 dts=25
.step amp=1 freqs=24250 dts=25
.step amp=1.5 freqs=24250 dts=25
.step amp=2 freqs=24250 dts=25
.step amp=2.5 freqs=24250 dts=25
.step amp=3 freqs=24250 dts=25
.step amp=3.5 freqs=24250 dts=25
.step amp=4 freqs=24250 dts=25
.step amp=4.5 freqs=24250 dts=25
.step amp=5 freqs=24250 dts=25
.step amp=1 freqs=24500 dts=25
.step amp=1.5 freqs=24500 dts=25
.step amp=2 freqs=24500 dts=25
.step amp=2.5 freqs=24500 dts=25
.step amp=3 freqs=24500 dts=25
.step amp=3.5 freqs=24500 dts=25
.step amp=4 freqs=24500 dts=25
.step amp=4.5 freqs=24500 dts=25
.step amp=5 freqs=24500 dts=25
.step amp=1 freqs=24750 dts=25
.step amp=1.5 freqs=24750 dts=25
.step amp=2 freqs=24750 dts=25
.step amp=2.5 freqs=24750 dts=25
.step amp=3 freqs=24750 dts=25
.step amp=3.5 freqs=24750 dts=25
.step amp=4 freqs=24750 dts=25
.step amp=4.5 freqs=24750 dts=25
.step amp=5 freqs=24750 dts=25
.step amp=1 freqs=25000 dts=25
.step amp=1.5 freqs=25000 dts=25
.step amp=2 freqs=25000 dts=25
.step amp=2.5 freqs=25000 dts=25
.step amp=3 freqs=25000 dts=25
.step amp=3.5 freqs=25000 dts=25
.step amp=4 freqs=25000 dts=25
.step amp=4.5 freqs=25000 dts=25
.step amp=5 freqs=25000 dts=25
.step amp=1 freqs=20000 dts=30
.step amp=1.5 freqs=20000 dts=30
.step amp=2 freqs=20000 dts=30
.step amp=2.5 freqs=20000 dts=30
.step amp=3 freqs=20000 dts=30
.step amp=3.5 freqs=20000 dts=30
.step amp=4 freqs=20000 dts=30
.step amp=4.5 freqs=20000 dts=30
.step amp=5 freqs=20000 dts=30
.step amp=1 freqs=20250 dts=30
.step amp=1.5 freqs=20250 dts=30
.step amp=2 freqs=20250 dts=30
.step amp=2.5 freqs=20250 dts=30
.step amp=3 freqs=20250 dts=30
.step amp=3.5 freqs=20250 dts=30
.step amp=4 freqs=20250 dts=30
.step amp=4.5 freqs=20250 dts=30
.step amp=5 freqs=20250 dts=30
.step amp=1 freqs=20500 dts=30
.step amp=1.5 freqs=20500 dts=30
.step amp=2 freqs=20500 dts=30
.step amp=2.5 freqs=20500 dts=30
.step amp=3 freqs=20500 dts=30
.step amp=3.5 freqs=20500 dts=30
.step amp=4 freqs=20500 dts=30
.step amp=4.5 freqs=20500 dts=30
.step amp=5 freqs=20500 dts=30
.step amp=1 freqs=20750 dts=30
.step amp=1.5 freqs=20750 dts=30
.step amp=2 freqs=20750 dts=30
.step amp=2.5 freqs=20750 dts=30
.step amp=3 freqs=20750 dts=30
.step amp=3.5 freqs=20750 dts=30
.step amp=4 freqs=20750 dts=30
.step amp=4.5 freqs=20750 dts=30
.step amp=5 freqs=20750 dts=30
.step amp=1 freqs=21000 dts=30
.step amp=1.5 freqs=21000 dts=30
.step amp=2 freqs=21000 dts=30
.step amp=2.5 freqs=21000 dts=30
.step amp=3 freqs=21000 dts=30
.step amp=3.5 freqs=21000 dts=30
.step amp=4 freqs=21000 dts=30
.step amp=4.5 freqs=21000 dts=30
.step amp=5 freqs=21000 dts=30
.step amp=1 freqs=21250 dts=30
.step amp=1.5 freqs=21250 dts=30
.step amp=2 freqs=21250 dts=30
.step amp=2.5 freqs=21250 dts=30
.step amp=3 freqs=21250 dts=30
.step amp=3.5 freqs=21250 dts=30
.step amp=4 freqs=21250 dts=30
.step amp=4.5 freqs=21250 dts=30
.step amp=5 freqs=21250 dts=30
.step amp=1 freqs=21500 dts=30
.step amp=1.5 freqs=21500 dts=30
.step amp=2 freqs=21500 dts=30
.step amp=2.5 freqs=21500 dts=30
.step amp=3 freqs=21500 dts=30
.step amp=3.5 freqs=21500 dts=30
.step amp=4 freqs=21500 dts=30
.step amp=4.5 freqs=21500 dts=30
.step amp=5 freqs=21500 dts=30
.step amp=1 freqs=21750 dts=30
.step amp=1.5 freqs=21750 dts=30
.step amp=2 freqs=21750 dts=30
.step amp=2.5 freqs=21750 dts=30
.step amp=3 freqs=21750 dts=30
.step amp=3.5 freqs=21750 dts=30
.step amp=4 freqs=21750 dts=30
.step amp=4.5 freqs=21750 dts=30
.step amp=5 freqs=21750 dts=30
.step amp=1 freqs=22000 dts=30
.step amp=1.5 freqs=22000 dts=30
.step amp=2 freqs=22000 dts=30
.step amp=2.5 freqs=22000 dts=30
.step amp=3 freqs=22000 dts=30
.step amp=3.5 freqs=22000 dts=30
.step amp=4 freqs=22000 dts=30
.step amp=4.5 freqs=22000 dts=30
.step amp=5 freqs=22000 dts=30
.step amp=1 freqs=22250 dts=30
.step amp=1.5 freqs=22250 dts=30
.step amp=2 freqs=22250 dts=30
.step amp=2.5 freqs=22250 dts=30
.step amp=3 freqs=22250 dts=30
.step amp=3.5 freqs=22250 dts=30
.step amp=4 freqs=22250 dts=30
.step amp=4.5 freqs=22250 dts=30
.step amp=5 freqs=22250 dts=30
.step amp=1 freqs=22500 dts=30
.step amp=1.5 freqs=22500 dts=30
.step amp=2 freqs=22500 dts=30
.step amp=2.5 freqs=22500 dts=30
.step amp=3 freqs=22500 dts=30
.step amp=3.5 freqs=22500 dts=30
.step amp=4 freqs=22500 dts=30
.step amp=4.5 freqs=22500 dts=30
.step amp=5 freqs=22500 dts=30
.step amp=1 freqs=22750 dts=30
.step amp=1.5 freqs=22750 dts=30
.step amp=2 freqs=22750 dts=30
.step amp=2.5 freqs=22750 dts=30
.step amp=3 freqs=22750 dts=30
.step amp=3.5 freqs=22750 dts=30
.step amp=4 freqs=22750 dts=30
.step amp=4.5 freqs=22750 dts=30
.step amp=5 freqs=22750 dts=30
.step amp=1 freqs=23000 dts=30
.step amp=1.5 freqs=23000 dts=30
.step amp=2 freqs=23000 dts=30
.step amp=2.5 freqs=23000 dts=30
.step amp=3 freqs=23000 dts=30
.step amp=3.5 freqs=23000 dts=30
.step amp=4 freqs=23000 dts=30
.step amp=4.5 freqs=23000 dts=30
.step amp=5 freqs=23000 dts=30
.step amp=1 freqs=23250 dts=30
.step amp=1.5 freqs=23250 dts=30
.step amp=2 freqs=23250 dts=30
.step amp=2.5 freqs=23250 dts=30
.step amp=3 freqs=23250 dts=30
.step amp=3.5 freqs=23250 dts=30
.step amp=4 freqs=23250 dts=30
.step amp=4.5 freqs=23250 dts=30
.step amp=5 freqs=23250 dts=30
.step amp=1 freqs=23500 dts=30
.step amp=1.5 freqs=23500 dts=30
.step amp=2 freqs=23500 dts=30
.step amp=2.5 freqs=23500 dts=30
.step amp=3 freqs=23500 dts=30
.step amp=3.5 freqs=23500 dts=30
.step amp=4 freqs=23500 dts=30
.step amp=4.5 freqs=23500 dts=30
.step amp=5 freqs=23500 dts=30
.step amp=1 freqs=23750 dts=30
.step amp=1.5 freqs=23750 dts=30
.step amp=2 freqs=23750 dts=30
.step amp=2.5 freqs=23750 dts=30
.step amp=3 freqs=23750 dts=30
.step amp=3.5 freqs=23750 dts=30
.step amp=4 freqs=23750 dts=30
.step amp=4.5 freqs=23750 dts=30
.step amp=5 freqs=23750 dts=30
.step amp=1 freqs=24000 dts=30
.step amp=1.5 freqs=24000 dts=30
.step amp=2 freqs=24000 dts=30
.step amp=2.5 freqs=24000 dts=30
.step amp=3 freqs=24000 dts=30
.step amp=3.5 freqs=24000 dts=30
.step amp=4 freqs=24000 dts=30
.step amp=4.5 freqs=24000 dts=30
.step amp=5 freqs=24000 dts=30
.step amp=1 freqs=24250 dts=30
.step amp=1.5 freqs=24250 dts=30
.step amp=2 freqs=24250 dts=30
.step amp=2.5 freqs=24250 dts=30
.step amp=3 freqs=24250 dts=30
.step amp=3.5 freqs=24250 dts=30
.step amp=4 freqs=24250 dts=30
.step amp=4.5 freqs=24250 dts=30
.step amp=5 freqs=24250 dts=30
.step amp=1 freqs=24500 dts=30
.step amp=1.5 freqs=24500 dts=30
.step amp=2 freqs=24500 dts=30
.step amp=2.5 freqs=24500 dts=30
.step amp=3 freqs=24500 dts=30
.step amp=3.5 freqs=24500 dts=30
.step amp=4 freqs=24500 dts=30
.step amp=4.5 freqs=24500 dts=30
.step amp=5 freqs=24500 dts=30
.step amp=1 freqs=24750 dts=30
.step amp=1.5 freqs=24750 dts=30
.step amp=2 freqs=24750 dts=30
.step amp=2.5 freqs=24750 dts=30
.step amp=3 freqs=24750 dts=30
.step amp=3.5 freqs=24750 dts=30
.step amp=4 freqs=24750 dts=30
.step amp=4.5 freqs=24750 dts=30
.step amp=5 freqs=24750 dts=30
.step amp=1 freqs=25000 dts=30
.step amp=1.5 freqs=25000 dts=30
.step amp=2 freqs=25000 dts=30
.step amp=2.5 freqs=25000 dts=30
.step amp=3 freqs=25000 dts=30
.step amp=3.5 freqs=25000 dts=30
.step amp=4 freqs=25000 dts=30
.step amp=4.5 freqs=25000 dts=30
.step amp=5 freqs=25000 dts=30
.step amp=1 freqs=20000 dts=35
.step amp=1.5 freqs=20000 dts=35
.step amp=2 freqs=20000 dts=35
.step amp=2.5 freqs=20000 dts=35
.step amp=3 freqs=20000 dts=35
.step amp=3.5 freqs=20000 dts=35
.step amp=4 freqs=20000 dts=35
.step amp=4.5 freqs=20000 dts=35
.step amp=5 freqs=20000 dts=35
.step amp=1 freqs=20250 dts=35
.step amp=1.5 freqs=20250 dts=35
.step amp=2 freqs=20250 dts=35
.step amp=2.5 freqs=20250 dts=35
.step amp=3 freqs=20250 dts=35
.step amp=3.5 freqs=20250 dts=35
.step amp=4 freqs=20250 dts=35
.step amp=4.5 freqs=20250 dts=35
.step amp=5 freqs=20250 dts=35
.step amp=1 freqs=20500 dts=35
.step amp=1.5 freqs=20500 dts=35
.step amp=2 freqs=20500 dts=35
.step amp=2.5 freqs=20500 dts=35
.step amp=3 freqs=20500 dts=35
.step amp=3.5 freqs=20500 dts=35
.step amp=4 freqs=20500 dts=35
.step amp=4.5 freqs=20500 dts=35
.step amp=5 freqs=20500 dts=35
.step amp=1 freqs=20750 dts=35
.step amp=1.5 freqs=20750 dts=35
.step amp=2 freqs=20750 dts=35
.step amp=2.5 freqs=20750 dts=35
.step amp=3 freqs=20750 dts=35
.step amp=3.5 freqs=20750 dts=35
.step amp=4 freqs=20750 dts=35
.step amp=4.5 freqs=20750 dts=35
.step amp=5 freqs=20750 dts=35
.step amp=1 freqs=21000 dts=35
.step amp=1.5 freqs=21000 dts=35
.step amp=2 freqs=21000 dts=35
.step amp=2.5 freqs=21000 dts=35
.step amp=3 freqs=21000 dts=35
.step amp=3.5 freqs=21000 dts=35
.step amp=4 freqs=21000 dts=35
.step amp=4.5 freqs=21000 dts=35
.step amp=5 freqs=21000 dts=35
.step amp=1 freqs=21250 dts=35
.step amp=1.5 freqs=21250 dts=35
.step amp=2 freqs=21250 dts=35
.step amp=2.5 freqs=21250 dts=35
.step amp=3 freqs=21250 dts=35
.step amp=3.5 freqs=21250 dts=35
.step amp=4 freqs=21250 dts=35
.step amp=4.5 freqs=21250 dts=35
.step amp=5 freqs=21250 dts=35
.step amp=1 freqs=21500 dts=35
.step amp=1.5 freqs=21500 dts=35
.step amp=2 freqs=21500 dts=35
.step amp=2.5 freqs=21500 dts=35
.step amp=3 freqs=21500 dts=35
.step amp=3.5 freqs=21500 dts=35
.step amp=4 freqs=21500 dts=35
.step amp=4.5 freqs=21500 dts=35
.step amp=5 freqs=21500 dts=35
.step amp=1 freqs=21750 dts=35
.step amp=1.5 freqs=21750 dts=35
.step amp=2 freqs=21750 dts=35
.step amp=2.5 freqs=21750 dts=35
.step amp=3 freqs=21750 dts=35
.step amp=3.5 freqs=21750 dts=35
.step amp=4 freqs=21750 dts=35
.step amp=4.5 freqs=21750 dts=35
.step amp=5 freqs=21750 dts=35
.step amp=1 freqs=22000 dts=35
.step amp=1.5 freqs=22000 dts=35
.step amp=2 freqs=22000 dts=35
.step amp=2.5 freqs=22000 dts=35
.step amp=3 freqs=22000 dts=35
.step amp=3.5 freqs=22000 dts=35
.step amp=4 freqs=22000 dts=35
.step amp=4.5 freqs=22000 dts=35
.step amp=5 freqs=22000 dts=35
.step amp=1 freqs=22250 dts=35
.step amp=1.5 freqs=22250 dts=35
.step amp=2 freqs=22250 dts=35
.step amp=2.5 freqs=22250 dts=35
.step amp=3 freqs=22250 dts=35
.step amp=3.5 freqs=22250 dts=35
.step amp=4 freqs=22250 dts=35
.step amp=4.5 freqs=22250 dts=35
.step amp=5 freqs=22250 dts=35
.step amp=1 freqs=22500 dts=35
.step amp=1.5 freqs=22500 dts=35
.step amp=2 freqs=22500 dts=35
.step amp=2.5 freqs=22500 dts=35
.step amp=3 freqs=22500 dts=35
.step amp=3.5 freqs=22500 dts=35
.step amp=4 freqs=22500 dts=35
.step amp=4.5 freqs=22500 dts=35
.step amp=5 freqs=22500 dts=35
.step amp=1 freqs=22750 dts=35
.step amp=1.5 freqs=22750 dts=35
.step amp=2 freqs=22750 dts=35
.step amp=2.5 freqs=22750 dts=35
.step amp=3 freqs=22750 dts=35
.step amp=3.5 freqs=22750 dts=35
.step amp=4 freqs=22750 dts=35
.step amp=4.5 freqs=22750 dts=35
.step amp=5 freqs=22750 dts=35
.step amp=1 freqs=23000 dts=35
.step amp=1.5 freqs=23000 dts=35
.step amp=2 freqs=23000 dts=35
.step amp=2.5 freqs=23000 dts=35
.step amp=3 freqs=23000 dts=35
.step amp=3.5 freqs=23000 dts=35
.step amp=4 freqs=23000 dts=35
.step amp=4.5 freqs=23000 dts=35
.step amp=5 freqs=23000 dts=35
.step amp=1 freqs=23250 dts=35
.step amp=1.5 freqs=23250 dts=35
.step amp=2 freqs=23250 dts=35
.step amp=2.5 freqs=23250 dts=35
.step amp=3 freqs=23250 dts=35
.step amp=3.5 freqs=23250 dts=35
.step amp=4 freqs=23250 dts=35
.step amp=4.5 freqs=23250 dts=35
.step amp=5 freqs=23250 dts=35
.step amp=1 freqs=23500 dts=35
.step amp=1.5 freqs=23500 dts=35
.step amp=2 freqs=23500 dts=35
.step amp=2.5 freqs=23500 dts=35
.step amp=3 freqs=23500 dts=35
.step amp=3.5 freqs=23500 dts=35
.step amp=4 freqs=23500 dts=35
.step amp=4.5 freqs=23500 dts=35
.step amp=5 freqs=23500 dts=35
.step amp=1 freqs=23750 dts=35
.step amp=1.5 freqs=23750 dts=35
.step amp=2 freqs=23750 dts=35
.step amp=2.5 freqs=23750 dts=35
.step amp=3 freqs=23750 dts=35
.step amp=3.5 freqs=23750 dts=35
.step amp=4 freqs=23750 dts=35
.step amp=4.5 freqs=23750 dts=35
.step amp=5 freqs=23750 dts=35
.step amp=1 freqs=24000 dts=35
.step amp=1.5 freqs=24000 dts=35
.step amp=2 freqs=24000 dts=35
.step amp=2.5 freqs=24000 dts=35
.step amp=3 freqs=24000 dts=35
.step amp=3.5 freqs=24000 dts=35
.step amp=4 freqs=24000 dts=35
.step amp=4.5 freqs=24000 dts=35
.step amp=5 freqs=24000 dts=35
.step amp=1 freqs=24250 dts=35
.step amp=1.5 freqs=24250 dts=35
.step amp=2 freqs=24250 dts=35
.step amp=2.5 freqs=24250 dts=35
.step amp=3 freqs=24250 dts=35
.step amp=3.5 freqs=24250 dts=35
.step amp=4 freqs=24250 dts=35
.step amp=4.5 freqs=24250 dts=35
.step amp=5 freqs=24250 dts=35
.step amp=1 freqs=24500 dts=35
.step amp=1.5 freqs=24500 dts=35
.step amp=2 freqs=24500 dts=35
.step amp=2.5 freqs=24500 dts=35
.step amp=3 freqs=24500 dts=35
.step amp=3.5 freqs=24500 dts=35
.step amp=4 freqs=24500 dts=35
.step amp=4.5 freqs=24500 dts=35
.step amp=5 freqs=24500 dts=35
.step amp=1 freqs=24750 dts=35
.step amp=1.5 freqs=24750 dts=35
.step amp=2 freqs=24750 dts=35
.step amp=2.5 freqs=24750 dts=35
.step amp=3 freqs=24750 dts=35
.step amp=3.5 freqs=24750 dts=35
.step amp=4 freqs=24750 dts=35
.step amp=4.5 freqs=24750 dts=35
.step amp=5 freqs=24750 dts=35
.step amp=1 freqs=25000 dts=35
.step amp=1.5 freqs=25000 dts=35
.step amp=2 freqs=25000 dts=35
.step amp=2.5 freqs=25000 dts=35
.step amp=3 freqs=25000 dts=35
.step amp=3.5 freqs=25000 dts=35
.step amp=4 freqs=25000 dts=35
.step amp=4.5 freqs=25000 dts=35
.step amp=5 freqs=25000 dts=35
.step amp=1 freqs=20000 dts=40
.step amp=1.5 freqs=20000 dts=40
.step amp=2 freqs=20000 dts=40
.step amp=2.5 freqs=20000 dts=40
.step amp=3 freqs=20000 dts=40
.step amp=3.5 freqs=20000 dts=40
.step amp=4 freqs=20000 dts=40
.step amp=4.5 freqs=20000 dts=40
.step amp=5 freqs=20000 dts=40
.step amp=1 freqs=20250 dts=40
.step amp=1.5 freqs=20250 dts=40
.step amp=2 freqs=20250 dts=40
.step amp=2.5 freqs=20250 dts=40
.step amp=3 freqs=20250 dts=40
.step amp=3.5 freqs=20250 dts=40
.step amp=4 freqs=20250 dts=40
.step amp=4.5 freqs=20250 dts=40
.step amp=5 freqs=20250 dts=40
.step amp=1 freqs=20500 dts=40
.step amp=1.5 freqs=20500 dts=40
.step amp=2 freqs=20500 dts=40
.step amp=2.5 freqs=20500 dts=40
.step amp=3 freqs=20500 dts=40
.step amp=3.5 freqs=20500 dts=40
.step amp=4 freqs=20500 dts=40
.step amp=4.5 freqs=20500 dts=40
.step amp=5 freqs=20500 dts=40
.step amp=1 freqs=20750 dts=40
.step amp=1.5 freqs=20750 dts=40
.step amp=2 freqs=20750 dts=40
.step amp=2.5 freqs=20750 dts=40
.step amp=3 freqs=20750 dts=40
.step amp=3.5 freqs=20750 dts=40
.step amp=4 freqs=20750 dts=40
.step amp=4.5 freqs=20750 dts=40
.step amp=5 freqs=20750 dts=40
.step amp=1 freqs=21000 dts=40
.step amp=1.5 freqs=21000 dts=40
.step amp=2 freqs=21000 dts=40
.step amp=2.5 freqs=21000 dts=40
.step amp=3 freqs=21000 dts=40
.step amp=3.5 freqs=21000 dts=40
.step amp=4 freqs=21000 dts=40
.step amp=4.5 freqs=21000 dts=40
.step amp=5 freqs=21000 dts=40
.step amp=1 freqs=21250 dts=40
.step amp=1.5 freqs=21250 dts=40
.step amp=2 freqs=21250 dts=40
.step amp=2.5 freqs=21250 dts=40
.step amp=3 freqs=21250 dts=40
.step amp=3.5 freqs=21250 dts=40
.step amp=4 freqs=21250 dts=40
.step amp=4.5 freqs=21250 dts=40
.step amp=5 freqs=21250 dts=40
.step amp=1 freqs=21500 dts=40
.step amp=1.5 freqs=21500 dts=40
.step amp=2 freqs=21500 dts=40
.step amp=2.5 freqs=21500 dts=40
.step amp=3 freqs=21500 dts=40
.step amp=3.5 freqs=21500 dts=40
.step amp=4 freqs=21500 dts=40
.step amp=4.5 freqs=21500 dts=40
.step amp=5 freqs=21500 dts=40
.step amp=1 freqs=21750 dts=40
.step amp=1.5 freqs=21750 dts=40
.step amp=2 freqs=21750 dts=40
.step amp=2.5 freqs=21750 dts=40
.step amp=3 freqs=21750 dts=40
.step amp=3.5 freqs=21750 dts=40
.step amp=4 freqs=21750 dts=40
.step amp=4.5 freqs=21750 dts=40
.step amp=5 freqs=21750 dts=40
.step amp=1 freqs=22000 dts=40
.step amp=1.5 freqs=22000 dts=40
.step amp=2 freqs=22000 dts=40
.step amp=2.5 freqs=22000 dts=40
.step amp=3 freqs=22000 dts=40
.step amp=3.5 freqs=22000 dts=40
.step amp=4 freqs=22000 dts=40
.step amp=4.5 freqs=22000 dts=40
.step amp=5 freqs=22000 dts=40
.step amp=1 freqs=22250 dts=40
.step amp=1.5 freqs=22250 dts=40
.step amp=2 freqs=22250 dts=40
.step amp=2.5 freqs=22250 dts=40
.step amp=3 freqs=22250 dts=40
.step amp=3.5 freqs=22250 dts=40
.step amp=4 freqs=22250 dts=40
.step amp=4.5 freqs=22250 dts=40
.step amp=5 freqs=22250 dts=40
.step amp=1 freqs=22500 dts=40
.step amp=1.5 freqs=22500 dts=40
.step amp=2 freqs=22500 dts=40
.step amp=2.5 freqs=22500 dts=40
.step amp=3 freqs=22500 dts=40
.step amp=3.5 freqs=22500 dts=40
.step amp=4 freqs=22500 dts=40
.step amp=4.5 freqs=22500 dts=40
.step amp=5 freqs=22500 dts=40
.step amp=1 freqs=22750 dts=40
.step amp=1.5 freqs=22750 dts=40
.step amp=2 freqs=22750 dts=40
.step amp=2.5 freqs=22750 dts=40
.step amp=3 freqs=22750 dts=40
.step amp=3.5 freqs=22750 dts=40
.step amp=4 freqs=22750 dts=40
.step amp=4.5 freqs=22750 dts=40
.step amp=5 freqs=22750 dts=40
.step amp=1 freqs=23000 dts=40
.step amp=1.5 freqs=23000 dts=40
.step amp=2 freqs=23000 dts=40
.step amp=2.5 freqs=23000 dts=40
.step amp=3 freqs=23000 dts=40
.step amp=3.5 freqs=23000 dts=40
.step amp=4 freqs=23000 dts=40
.step amp=4.5 freqs=23000 dts=40
.step amp=5 freqs=23000 dts=40
.step amp=1 freqs=23250 dts=40
.step amp=1.5 freqs=23250 dts=40
.step amp=2 freqs=23250 dts=40
.step amp=2.5 freqs=23250 dts=40
.step amp=3 freqs=23250 dts=40
.step amp=3.5 freqs=23250 dts=40
.step amp=4 freqs=23250 dts=40
.step amp=4.5 freqs=23250 dts=40
.step amp=5 freqs=23250 dts=40
.step amp=1 freqs=23500 dts=40
.step amp=1.5 freqs=23500 dts=40
.step amp=2 freqs=23500 dts=40
.step amp=2.5 freqs=23500 dts=40
.step amp=3 freqs=23500 dts=40
.step amp=3.5 freqs=23500 dts=40
.step amp=4 freqs=23500 dts=40
.step amp=4.5 freqs=23500 dts=40
.step amp=5 freqs=23500 dts=40
.step amp=1 freqs=23750 dts=40
.step amp=1.5 freqs=23750 dts=40
.step amp=2 freqs=23750 dts=40
.step amp=2.5 freqs=23750 dts=40
.step amp=3 freqs=23750 dts=40
.step amp=3.5 freqs=23750 dts=40
.step amp=4 freqs=23750 dts=40
.step amp=4.5 freqs=23750 dts=40
.step amp=5 freqs=23750 dts=40
.step amp=1 freqs=24000 dts=40
.step amp=1.5 freqs=24000 dts=40
.step amp=2 freqs=24000 dts=40
.step amp=2.5 freqs=24000 dts=40
.step amp=3 freqs=24000 dts=40
.step amp=3.5 freqs=24000 dts=40
.step amp=4 freqs=24000 dts=40
.step amp=4.5 freqs=24000 dts=40
.step amp=5 freqs=24000 dts=40
.step amp=1 freqs=24250 dts=40
.step amp=1.5 freqs=24250 dts=40
.step amp=2 freqs=24250 dts=40
.step amp=2.5 freqs=24250 dts=40
.step amp=3 freqs=24250 dts=40
.step amp=3.5 freqs=24250 dts=40
.step amp=4 freqs=24250 dts=40
.step amp=4.5 freqs=24250 dts=40
.step amp=5 freqs=24250 dts=40
.step amp=1 freqs=24500 dts=40
.step amp=1.5 freqs=24500 dts=40
.step amp=2 freqs=24500 dts=40
.step amp=2.5 freqs=24500 dts=40
.step amp=3 freqs=24500 dts=40
.step amp=3.5 freqs=24500 dts=40
.step amp=4 freqs=24500 dts=40
.step amp=4.5 freqs=24500 dts=40
.step amp=5 freqs=24500 dts=40
.step amp=1 freqs=24750 dts=40
.step amp=1.5 freqs=24750 dts=40
.step amp=2 freqs=24750 dts=40
.step amp=2.5 freqs=24750 dts=40
.step amp=3 freqs=24750 dts=40
.step amp=3.5 freqs=24750 dts=40
.step amp=4 freqs=24750 dts=40
.step amp=4.5 freqs=24750 dts=40
.step amp=5 freqs=24750 dts=40
.step amp=1 freqs=25000 dts=40
.step amp=1.5 freqs=25000 dts=40
.step amp=2 freqs=25000 dts=40
.step amp=2.5 freqs=25000 dts=40
.step amp=3 freqs=25000 dts=40
.step amp=3.5 freqs=25000 dts=40
.step amp=4 freqs=25000 dts=40
.step amp=4.5 freqs=25000 dts=40
.step amp=5 freqs=25000 dts=40
.step amp=1 freqs=20000 dts=45
.step amp=1.5 freqs=20000 dts=45
.step amp=2 freqs=20000 dts=45
.step amp=2.5 freqs=20000 dts=45
.step amp=3 freqs=20000 dts=45
.step amp=3.5 freqs=20000 dts=45
.step amp=4 freqs=20000 dts=45
.step amp=4.5 freqs=20000 dts=45
.step amp=5 freqs=20000 dts=45
.step amp=1 freqs=20250 dts=45
.step amp=1.5 freqs=20250 dts=45
.step amp=2 freqs=20250 dts=45
.step amp=2.5 freqs=20250 dts=45
.step amp=3 freqs=20250 dts=45
.step amp=3.5 freqs=20250 dts=45
.step amp=4 freqs=20250 dts=45
.step amp=4.5 freqs=20250 dts=45
.step amp=5 freqs=20250 dts=45
.step amp=1 freqs=20500 dts=45
.step amp=1.5 freqs=20500 dts=45
.step amp=2 freqs=20500 dts=45
.step amp=2.5 freqs=20500 dts=45
.step amp=3 freqs=20500 dts=45
.step amp=3.5 freqs=20500 dts=45
.step amp=4 freqs=20500 dts=45
.step amp=4.5 freqs=20500 dts=45
.step amp=5 freqs=20500 dts=45
.step amp=1 freqs=20750 dts=45
.step amp=1.5 freqs=20750 dts=45
.step amp=2 freqs=20750 dts=45
.step amp=2.5 freqs=20750 dts=45
.step amp=3 freqs=20750 dts=45
.step amp=3.5 freqs=20750 dts=45
.step amp=4 freqs=20750 dts=45
.step amp=4.5 freqs=20750 dts=45
.step amp=5 freqs=20750 dts=45
.step amp=1 freqs=21000 dts=45
.step amp=1.5 freqs=21000 dts=45
.step amp=2 freqs=21000 dts=45
.step amp=2.5 freqs=21000 dts=45
.step amp=3 freqs=21000 dts=45
.step amp=3.5 freqs=21000 dts=45
.step amp=4 freqs=21000 dts=45
.step amp=4.5 freqs=21000 dts=45
.step amp=5 freqs=21000 dts=45
.step amp=1 freqs=21250 dts=45
.step amp=1.5 freqs=21250 dts=45
.step amp=2 freqs=21250 dts=45
.step amp=2.5 freqs=21250 dts=45
.step amp=3 freqs=21250 dts=45
.step amp=3.5 freqs=21250 dts=45
.step amp=4 freqs=21250 dts=45
.step amp=4.5 freqs=21250 dts=45
.step amp=5 freqs=21250 dts=45
.step amp=1 freqs=21500 dts=45
.step amp=1.5 freqs=21500 dts=45
.step amp=2 freqs=21500 dts=45
.step amp=2.5 freqs=21500 dts=45
.step amp=3 freqs=21500 dts=45
.step amp=3.5 freqs=21500 dts=45
.step amp=4 freqs=21500 dts=45
.step amp=4.5 freqs=21500 dts=45
.step amp=5 freqs=21500 dts=45
.step amp=1 freqs=21750 dts=45
.step amp=1.5 freqs=21750 dts=45
.step amp=2 freqs=21750 dts=45
.step amp=2.5 freqs=21750 dts=45
.step amp=3 freqs=21750 dts=45
.step amp=3.5 freqs=21750 dts=45
.step amp=4 freqs=21750 dts=45
.step amp=4.5 freqs=21750 dts=45
.step amp=5 freqs=21750 dts=45
.step amp=1 freqs=22000 dts=45
.step amp=1.5 freqs=22000 dts=45
.step amp=2 freqs=22000 dts=45
.step amp=2.5 freqs=22000 dts=45
.step amp=3 freqs=22000 dts=45
.step amp=3.5 freqs=22000 dts=45
.step amp=4 freqs=22000 dts=45
.step amp=4.5 freqs=22000 dts=45
.step amp=5 freqs=22000 dts=45
.step amp=1 freqs=22250 dts=45
.step amp=1.5 freqs=22250 dts=45
.step amp=2 freqs=22250 dts=45
.step amp=2.5 freqs=22250 dts=45
.step amp=3 freqs=22250 dts=45
.step amp=3.5 freqs=22250 dts=45
.step amp=4 freqs=22250 dts=45
.step amp=4.5 freqs=22250 dts=45
.step amp=5 freqs=22250 dts=45
.step amp=1 freqs=22500 dts=45
.step amp=1.5 freqs=22500 dts=45
.step amp=2 freqs=22500 dts=45
.step amp=2.5 freqs=22500 dts=45
.step amp=3 freqs=22500 dts=45
.step amp=3.5 freqs=22500 dts=45
.step amp=4 freqs=22500 dts=45
.step amp=4.5 freqs=22500 dts=45
.step amp=5 freqs=22500 dts=45
.step amp=1 freqs=22750 dts=45
.step amp=1.5 freqs=22750 dts=45
.step amp=2 freqs=22750 dts=45
.step amp=2.5 freqs=22750 dts=45
.step amp=3 freqs=22750 dts=45
.step amp=3.5 freqs=22750 dts=45
.step amp=4 freqs=22750 dts=45
.step amp=4.5 freqs=22750 dts=45
.step amp=5 freqs=22750 dts=45
.step amp=1 freqs=23000 dts=45
.step amp=1.5 freqs=23000 dts=45
.step amp=2 freqs=23000 dts=45
.step amp=2.5 freqs=23000 dts=45
.step amp=3 freqs=23000 dts=45
.step amp=3.5 freqs=23000 dts=45
.step amp=4 freqs=23000 dts=45
.step amp=4.5 freqs=23000 dts=45
.step amp=5 freqs=23000 dts=45
.step amp=1 freqs=23250 dts=45
.step amp=1.5 freqs=23250 dts=45
.step amp=2 freqs=23250 dts=45
.step amp=2.5 freqs=23250 dts=45
.step amp=3 freqs=23250 dts=45
.step amp=3.5 freqs=23250 dts=45
.step amp=4 freqs=23250 dts=45
.step amp=4.5 freqs=23250 dts=45
.step amp=5 freqs=23250 dts=45
.step amp=1 freqs=23500 dts=45
.step amp=1.5 freqs=23500 dts=45
.step amp=2 freqs=23500 dts=45
.step amp=2.5 freqs=23500 dts=45
.step amp=3 freqs=23500 dts=45
.step amp=3.5 freqs=23500 dts=45
.step amp=4 freqs=23500 dts=45
.step amp=4.5 freqs=23500 dts=45
.step amp=5 freqs=23500 dts=45
.step amp=1 freqs=23750 dts=45
.step amp=1.5 freqs=23750 dts=45
.step amp=2 freqs=23750 dts=45
.step amp=2.5 freqs=23750 dts=45
.step amp=3 freqs=23750 dts=45
.step amp=3.5 freqs=23750 dts=45
.step amp=4 freqs=23750 dts=45
.step amp=4.5 freqs=23750 dts=45
.step amp=5 freqs=23750 dts=45
.step amp=1 freqs=24000 dts=45
.step amp=1.5 freqs=24000 dts=45
.step amp=2 freqs=24000 dts=45
.step amp=2.5 freqs=24000 dts=45
.step amp=3 freqs=24000 dts=45
.step amp=3.5 freqs=24000 dts=45
.step amp=4 freqs=24000 dts=45
.step amp=4.5 freqs=24000 dts=45
.step amp=5 freqs=24000 dts=45
.step amp=1 freqs=24250 dts=45
.step amp=1.5 freqs=24250 dts=45
.step amp=2 freqs=24250 dts=45
.step amp=2.5 freqs=24250 dts=45
.step amp=3 freqs=24250 dts=45
.step amp=3.5 freqs=24250 dts=45
.step amp=4 freqs=24250 dts=45
.step amp=4.5 freqs=24250 dts=45
.step amp=5 freqs=24250 dts=45
.step amp=1 freqs=24500 dts=45
.step amp=1.5 freqs=24500 dts=45
.step amp=2 freqs=24500 dts=45
.step amp=2.5 freqs=24500 dts=45
.step amp=3 freqs=24500 dts=45
.step amp=3.5 freqs=24500 dts=45
.step amp=4 freqs=24500 dts=45
.step amp=4.5 freqs=24500 dts=45
.step amp=5 freqs=24500 dts=45
.step amp=1 freqs=24750 dts=45
.step amp=1.5 freqs=24750 dts=45
.step amp=2 freqs=24750 dts=45
.step amp=2.5 freqs=24750 dts=45
.step amp=3 freqs=24750 dts=45
.step amp=3.5 freqs=24750 dts=45
.step amp=4 freqs=24750 dts=45
.step amp=4.5 freqs=24750 dts=45
.step amp=5 freqs=24750 dts=45
.step amp=1 freqs=25000 dts=45
.step amp=1.5 freqs=25000 dts=45
.step amp=2 freqs=25000 dts=45
.step amp=2.5 freqs=25000 dts=45
.step amp=3 freqs=25000 dts=45
.step amp=3.5 freqs=25000 dts=45
.step amp=4 freqs=25000 dts=45
.step amp=4.5 freqs=25000 dts=45
.step amp=5 freqs=25000 dts=45
.step amp=1 freqs=20000 dts=50
.step amp=1.5 freqs=20000 dts=50
.step amp=2 freqs=20000 dts=50
.step amp=2.5 freqs=20000 dts=50
.step amp=3 freqs=20000 dts=50
.step amp=3.5 freqs=20000 dts=50
.step amp=4 freqs=20000 dts=50
.step amp=4.5 freqs=20000 dts=50
.step amp=5 freqs=20000 dts=50
.step amp=1 freqs=20250 dts=50
.step amp=1.5 freqs=20250 dts=50
.step amp=2 freqs=20250 dts=50
.step amp=2.5 freqs=20250 dts=50
.step amp=3 freqs=20250 dts=50
.step amp=3.5 freqs=20250 dts=50
.step amp=4 freqs=20250 dts=50
.step amp=4.5 freqs=20250 dts=50
.step amp=5 freqs=20250 dts=50
.step amp=1 freqs=20500 dts=50
.step amp=1.5 freqs=20500 dts=50
.step amp=2 freqs=20500 dts=50
.step amp=2.5 freqs=20500 dts=50
.step amp=3 freqs=20500 dts=50
.step amp=3.5 freqs=20500 dts=50
.step amp=4 freqs=20500 dts=50
.step amp=4.5 freqs=20500 dts=50
.step amp=5 freqs=20500 dts=50
.step amp=1 freqs=20750 dts=50
.step amp=1.5 freqs=20750 dts=50
.step amp=2 freqs=20750 dts=50
.step amp=2.5 freqs=20750 dts=50
.step amp=3 freqs=20750 dts=50
.step amp=3.5 freqs=20750 dts=50
.step amp=4 freqs=20750 dts=50
.step amp=4.5 freqs=20750 dts=50
.step amp=5 freqs=20750 dts=50
.step amp=1 freqs=21000 dts=50
.step amp=1.5 freqs=21000 dts=50
.step amp=2 freqs=21000 dts=50
.step amp=2.5 freqs=21000 dts=50
.step amp=3 freqs=21000 dts=50
.step amp=3.5 freqs=21000 dts=50
.step amp=4 freqs=21000 dts=50
.step amp=4.5 freqs=21000 dts=50
.step amp=5 freqs=21000 dts=50
.step amp=1 freqs=21250 dts=50
.step amp=1.5 freqs=21250 dts=50
.step amp=2 freqs=21250 dts=50
.step amp=2.5 freqs=21250 dts=50
.step amp=3 freqs=21250 dts=50
.step amp=3.5 freqs=21250 dts=50
.step amp=4 freqs=21250 dts=50
.step amp=4.5 freqs=21250 dts=50
.step amp=5 freqs=21250 dts=50
.step amp=1 freqs=21500 dts=50
.step amp=1.5 freqs=21500 dts=50
.step amp=2 freqs=21500 dts=50
.step amp=2.5 freqs=21500 dts=50
.step amp=3 freqs=21500 dts=50
.step amp=3.5 freqs=21500 dts=50
.step amp=4 freqs=21500 dts=50
.step amp=4.5 freqs=21500 dts=50
.step amp=5 freqs=21500 dts=50
.step amp=1 freqs=21750 dts=50
.step amp=1.5 freqs=21750 dts=50
.step amp=2 freqs=21750 dts=50
.step amp=2.5 freqs=21750 dts=50
.step amp=3 freqs=21750 dts=50
.step amp=3.5 freqs=21750 dts=50
.step amp=4 freqs=21750 dts=50
.step amp=4.5 freqs=21750 dts=50
.step amp=5 freqs=21750 dts=50
.step amp=1 freqs=22000 dts=50
.step amp=1.5 freqs=22000 dts=50
.step amp=2 freqs=22000 dts=50
.step amp=2.5 freqs=22000 dts=50
.step amp=3 freqs=22000 dts=50
.step amp=3.5 freqs=22000 dts=50
.step amp=4 freqs=22000 dts=50
.step amp=4.5 freqs=22000 dts=50
.step amp=5 freqs=22000 dts=50
.step amp=1 freqs=22250 dts=50
.step amp=1.5 freqs=22250 dts=50
.step amp=2 freqs=22250 dts=50
.step amp=2.5 freqs=22250 dts=50
.step amp=3 freqs=22250 dts=50
.step amp=3.5 freqs=22250 dts=50
.step amp=4 freqs=22250 dts=50
.step amp=4.5 freqs=22250 dts=50
.step amp=5 freqs=22250 dts=50
.step amp=1 freqs=22500 dts=50
.step amp=1.5 freqs=22500 dts=50
.step amp=2 freqs=22500 dts=50
.step amp=2.5 freqs=22500 dts=50
.step amp=3 freqs=22500 dts=50
.step amp=3.5 freqs=22500 dts=50
.step amp=4 freqs=22500 dts=50
.step amp=4.5 freqs=22500 dts=50
.step amp=5 freqs=22500 dts=50
.step amp=1 freqs=22750 dts=50
.step amp=1.5 freqs=22750 dts=50
.step amp=2 freqs=22750 dts=50
.step amp=2.5 freqs=22750 dts=50
.step amp=3 freqs=22750 dts=50
.step amp=3.5 freqs=22750 dts=50
.step amp=4 freqs=22750 dts=50
.step amp=4.5 freqs=22750 dts=50
.step amp=5 freqs=22750 dts=50
.step amp=1 freqs=23000 dts=50
.step amp=1.5 freqs=23000 dts=50
.step amp=2 freqs=23000 dts=50
.step amp=2.5 freqs=23000 dts=50
.step amp=3 freqs=23000 dts=50
.step amp=3.5 freqs=23000 dts=50
.step amp=4 freqs=23000 dts=50
.step amp=4.5 freqs=23000 dts=50
.step amp=5 freqs=23000 dts=50
.step amp=1 freqs=23250 dts=50
.step amp=1.5 freqs=23250 dts=50
.step amp=2 freqs=23250 dts=50
.step amp=2.5 freqs=23250 dts=50
.step amp=3 freqs=23250 dts=50
.step amp=3.5 freqs=23250 dts=50
.step amp=4 freqs=23250 dts=50
.step amp=4.5 freqs=23250 dts=50
.step amp=5 freqs=23250 dts=50
.step amp=1 freqs=23500 dts=50
.step amp=1.5 freqs=23500 dts=50
.step amp=2 freqs=23500 dts=50
.step amp=2.5 freqs=23500 dts=50
.step amp=3 freqs=23500 dts=50
.step amp=3.5 freqs=23500 dts=50
.step amp=4 freqs=23500 dts=50
.step amp=4.5 freqs=23500 dts=50
.step amp=5 freqs=23500 dts=50
.step amp=1 freqs=23750 dts=50
.step amp=1.5 freqs=23750 dts=50
.step amp=2 freqs=23750 dts=50
.step amp=2.5 freqs=23750 dts=50
.step amp=3 freqs=23750 dts=50
.step amp=3.5 freqs=23750 dts=50
.step amp=4 freqs=23750 dts=50
.step amp=4.5 freqs=23750 dts=50
.step amp=5 freqs=23750 dts=50
.step amp=1 freqs=24000 dts=50
.step amp=1.5 freqs=24000 dts=50
.step amp=2 freqs=24000 dts=50
.step amp=2.5 freqs=24000 dts=50
.step amp=3 freqs=24000 dts=50
.step amp=3.5 freqs=24000 dts=50
.step amp=4 freqs=24000 dts=50
.step amp=4.5 freqs=24000 dts=50
.step amp=5 freqs=24000 dts=50
.step amp=1 freqs=24250 dts=50
.step amp=1.5 freqs=24250 dts=50
.step amp=2 freqs=24250 dts=50
.step amp=2.5 freqs=24250 dts=50
.step amp=3 freqs=24250 dts=50
.step amp=3.5 freqs=24250 dts=50
.step amp=4 freqs=24250 dts=50
.step amp=4.5 freqs=24250 dts=50
.step amp=5 freqs=24250 dts=50
.step amp=1 freqs=24500 dts=50
.step amp=1.5 freqs=24500 dts=50
.step amp=2 freqs=24500 dts=50
.step amp=2.5 freqs=24500 dts=50
.step amp=3 freqs=24500 dts=50
.step amp=3.5 freqs=24500 dts=50
.step amp=4 freqs=24500 dts=50
.step amp=4.5 freqs=24500 dts=50
.step amp=5 freqs=24500 dts=50
.step amp=1 freqs=24750 dts=50
.step amp=1.5 freqs=24750 dts=50
.step amp=2 freqs=24750 dts=50
.step amp=2.5 freqs=24750 dts=50
.step amp=3 freqs=24750 dts=50
.step amp=3.5 freqs=24750 dts=50
.step amp=4 freqs=24750 dts=50
.step amp=4.5 freqs=24750 dts=50
.step amp=5 freqs=24750 dts=50
.step amp=1 freqs=25000 dts=50
.step amp=1.5 freqs=25000 dts=50
.step amp=2 freqs=25000 dts=50
.step amp=2.5 freqs=25000 dts=50
.step amp=3 freqs=25000 dts=50
.step amp=3.5 freqs=25000 dts=50
.step amp=4 freqs=25000 dts=50
.step amp=4.5 freqs=25000 dts=50
.step amp=5 freqs=25000 dts=50

Date: Sat Apr  4 22:23:09 2020
Total elapsed time: 7856.887 seconds.

tnom = 27
temp = 27
method = modified trap
totiter = 92767
traniter = 92767
tranpoints = 39245
accept = 34129
rejected = 4887
matrix size = 368
fillins = 897
solver = Normal
Thread vector: 37.5/18.6[6] 16.6/7.5[6] 10.7/4.5[6] 4.8/6.2[1]  2592/500
Matrix Compiler1: 71.95 KB object code size  39.0/24.5/[7.8]
Matrix Compiler2: 47.41 KB object code size  13.8/13.3/[4.3]

