Circuit: * C:\Users\Guido\Documents\GitHub\ASSD\TP1\Ejercicio-6\Spice\FAA+SH+FR.asc

WARNING: Less than two connections to node N003.  This node is used by V2.
WARNING: Less than two connections to node N001.  This node is used by V7.
Per .tran options, skipping operating point for transient analysis.
.step amp=1 freqs=20000 dts=5
Changing Tseed to 1e-012
Changing Tseed to 1e-014
Changing Tseed to 1e-011
Changing Tseed to 1e-015
Changing Tseed to 1e-010
Changing Tseed to 1e-016
Changing Tseed to 1e-009
Changing Tseed to 1e-017
Changing Tseed to 1e-008
Changing Tseed to 1e-018
Changing Tseed to 1e-007
Changing Tseed to 1e-019
Heightened Def Con from 0 Changing Tseed to 1e-012
Changing Tseed to 1e-014
Changing Tseed to 1e-011
Changing Tseed to 1e-015
Changing Tseed to 1e-010
Changing Tseed to 1e-016
Changing Tseed to 1e-009
Changing Tseed to 1e-017
Changing Tseed to 1e-008
Changing Tseed to 1e-018
Changing Tseed to 1e-007
Changing Tseed to 1e-019
+Changing Tseed to 1e-012
Changing Tseed to 1e-014
Changing Tseed to 1e-011
Changing Tseed to 1e-015
Changing Tseed to 1e-010
Changing Tseed to 1e-016
Changing Tseed to 1e-009
Changing Tseed to 1e-017
Changing Tseed to 1e-008
Changing Tseed to 1e-018
Changing Tseed to 1e-007
Changing Tseed to 1e-019
+Changing Tseed to 1e-012
Changing Tseed to 1e-014
Changing Tseed to 1e-011
Changing Tseed to 1e-015
Changing Tseed to 1e-010
Changing Tseed to 1e-016
Changing Tseed to 1e-009
Changing Tseed to 1e-017
Changing Tseed to 1e-008
Changing Tseed to 1e-018
Changing Tseed to 1e-007
Changing Tseed to 1e-019
+Changing Tseed to 1e-012
Changing Tseed to 1e-014
Changing Tseed to 1e-011
Changing Tseed to 1e-015
Changing Tseed to 1e-010
Changing Tseed to 1e-016
Changing Tseed to 1e-009
Changing Tseed to 1e-017
Changing Tseed to 1e-008
Changing Tseed to 1e-018
Changing Tseed to 1e-007
Changing Tseed to 1e-019
+Changing Tseed to 1e-012
Changing Tseed to 1e-014
Changing Tseed to 1e-011
Changing Tseed to 1e-015
Changing Tseed to 1e-010
Changing Tseed to 1e-016
Changing Tseed to 1e-009
Changing Tseed to 1e-017
Changing Tseed to 1e-008
Changing Tseed to 1e-018
Changing Tseed to 1e-007
Changing Tseed to 1e-019
+Changing Tseed to 1e-012
Changing Tseed to 1e-014
Changing Tseed to 1e-011
Changing Tseed to 1e-015
Changing Tseed to 1e-010
Changing Tseed to 1e-016
Changing Tseed to 1e-009
Changing Tseed to 1e-017
Changing Tseed to 1e-008
Changing Tseed to 1e-018
Changing Tseed to 1e-007
Changing Tseed to 1e-019
+Changing Tseed to 1e-012
Changing Tseed to 1e-014
Changing Tseed to 1e-011
Changing Tseed to 1e-015
Changing Tseed to 1e-010
Changing Tseed to 1e-016
Changing Tseed to 1e-009
Changing Tseed to 1e-017
Changing Tseed to 1e-008
Changing Tseed to 1e-018
Changing Tseed to 1e-007
Changing Tseed to 1e-019
+Changing Tseed to 1e-012
Changing Tseed to 1e-014
Changing Tseed to 1e-011
Changing Tseed to 1e-015
Changing Tseed to 1e-010
Changing Tseed to 1e-016
Changing Tseed to 1e-009
Changing Tseed to 1e-017
Changing Tseed to 1e-008
Changing Tseed to 1e-018
Changing Tseed to 1e-007
Changing Tseed to 1e-019
+Changing Tseed to 1e-012
Changing Tseed to 1e-014
Changing Tseed to 1e-011
Changing Tseed to 1e-015
Changing Tseed to 1e-010
Changing Tseed to 1e-016
Changing Tseed to 1e-009
Changing Tseed to 1e-017
Changing Tseed to 1e-008
Changing Tseed to 1e-018
Changing Tseed to 1e-007
Changing Tseed to 1e-019
+Changing Tseed to 1e-012
Changing Tseed to 1e-014
Changing Tseed to 1e-011
Changing Tseed to 1e-015
Changing Tseed to 1e-010
Changing Tseed to 1e-016
Changing Tseed to 1e-009
Changing Tseed to 1e-017
Changing Tseed to 1e-008
Changing Tseed to 1e-018
Changing Tseed to 1e-007
Changing Tseed to 1e-019
+Changing Tseed to 1e-012
Changing Tseed to 1e-014
Changing Tseed to 1e-011
Changing Tseed to 1e-015
Changing Tseed to 1e-010
Changing Tseed to 1e-016
Changing Tseed to 1e-009
Changing Tseed to 1e-017
Changing Tseed to 1e-008
Changing Tseed to 1e-018
Changing Tseed to 1e-007
Changing Tseed to 1e-019
+Changing Tseed to 1e-012
Changing Tseed to 1e-014
Changing Tseed to 1e-011
Changing Tseed to 1e-015
Changing Tseed to 1e-010
Changing Tseed to 1e-016
Changing Tseed to 1e-009
Changing Tseed to 1e-017
Changing Tseed to 1e-008
Changing Tseed to 1e-018
Changing Tseed to 1e-007
Changing Tseed to 1e-019
+Changing Tseed to 1e-012
Changing Tseed to 1e-014
Changing Tseed to 1e-011
Changing Tseed to 1e-015
Changing Tseed to 1e-010
Changing Tseed to 1e-016
Changing Tseed to 1e-009
Changing Tseed to 1e-017
Changing Tseed to 1e-008
Changing Tseed to 1e-018
Changing Tseed to 1e-007
Changing Tseed to 1e-019
+Changing Tseed to 1e-012
Changing Tseed to 1e-014
Changing Tseed to 1e-011
Changing Tseed to 1e-015
Changing Tseed to 1e-010
Changing Tseed to 1e-016
Changing Tseed to 1e-009
Changing Tseed to 1e-017
Changing Tseed to 1e-008
Changing Tseed to 1e-018
Changing Tseed to 1e-007
Changing Tseed to 1e-019
+Changing Tseed to 1e-012
Changing Tseed to 1e-014
Changing Tseed to 1e-011
Changing Tseed to 1e-015
Changing Tseed to 1e-010
Changing Tseed to 1e-016
Changing Tseed to 1e-009
Changing Tseed to 1e-017
Changing Tseed to 1e-008
Changing Tseed to 1e-018
Changing Tseed to 1e-007
Changing Tseed to 1e-019
+Changing Tseed to 1e-012
Changing Tseed to 1e-014
Changing Tseed to 1e-011
Changing Tseed to 1e-015
Changing Tseed to 1e-010
Changing Tseed to 1e-016
Changing Tseed to 1e-009
Changing Tseed to 1e-017
Changing Tseed to 1e-008
Changing Tseed to 1e-018
Changing Tseed to 1e-007
Changing Tseed to 1e-019
+Changing Tseed to 1e-012
Changing Tseed to 1e-014
Changing Tseed to 1e-011
Changing Tseed to 1e-015
Changing Tseed to 1e-010
Changing Tseed to 1e-016
Changing Tseed to 1e-009
Changing Tseed to 1e-017
Changing Tseed to 1e-008
Changing Tseed to 1e-018
Changing Tseed to 1e-007
Changing Tseed to 1e-019
+Changing Tseed to 1e-012
Changing Tseed to 1e-014
Changing Tseed to 1e-011
Changing Tseed to 1e-015
Changing Tseed to 1e-010
Changing Tseed to 1e-016
Changing Tseed to 1e-009
Changing Tseed to 1e-017
Changing Tseed to 1e-008
Changing Tseed to 1e-018
Changing Tseed to 1e-007
Changing Tseed to 1e-019
+Changing Tseed to 1e-012
Changing Tseed to 1e-014
Changing Tseed to 1e-011
Changing Tseed to 1e-015
Changing Tseed to 1e-010
Changing Tseed to 1e-016
Changing Tseed to 1e-009
Changing Tseed to 1e-017
Changing Tseed to 1e-008
Changing Tseed to 1e-018
Changing Tseed to 1e-007
Changing Tseed to 1e-019
+Changing Tseed to 1e-012
Changing Tseed to 1e-014
Changing Tseed to 1e-011
Changing Tseed to 1e-015
Changing Tseed to 1e-010
Changing Tseed to 1e-016
Changing Tseed to 1e-009
Changing Tseed to 1e-017
Changing Tseed to 1e-008
Changing Tseed to 1e-018
Changing Tseed to 1e-007
Changing Tseed to 1e-019
+Changing Tseed to 1e-012
Changing Tseed to 1e-014
Changing Tseed to 1e-011
Changing Tseed to 1e-015
Changing Tseed to 1e-010
Changing Tseed to 1e-016
Changing Tseed to 1e-009
Changing Tseed to 1e-017
Changing Tseed to 1e-008
Changing Tseed to 1e-018
Changing Tseed to 1e-007
Changing Tseed to 1e-019
+to 1.125e-013
Heightened Def Con from 1.125e-013 +++++++++++to 1.12359e-011
Heightened Def Con from 1.12359e-011 to 1.13624e-009
.step amp=1.5 freqs=20000 dts=5
.step amp=2 freqs=20000 dts=5
.step amp=2.5 freqs=20000 dts=5
.step amp=3 freqs=20000 dts=5
.step amp=3.5 freqs=20000 dts=5
.step amp=4 freqs=20000 dts=5
.step amp=4.5 freqs=20000 dts=5
.step amp=5 freqs=20000 dts=5
.step amp=1 freqs=20250 dts=5
.step amp=1.5 freqs=20250 dts=5
.step amp=2 freqs=20250 dts=5
.step amp=2.5 freqs=20250 dts=5
.step amp=3 freqs=20250 dts=5
.step amp=3.5 freqs=20250 dts=5
.step amp=4 freqs=20250 dts=5
.step amp=4.5 freqs=20250 dts=5
.step amp=5 freqs=20250 dts=5
.step amp=1 freqs=20500 dts=5
.step amp=1.5 freqs=20500 dts=5
.step amp=2 freqs=20500 dts=5
.step amp=2.5 freqs=20500 dts=5
.step amp=3 freqs=20500 dts=5
.step amp=3.5 freqs=20500 dts=5
.step amp=4 freqs=20500 dts=5
.step amp=4.5 freqs=20500 dts=5
.step amp=5 freqs=20500 dts=5
.step amp=1 freqs=20750 dts=5
.step amp=1.5 freqs=20750 dts=5
.step amp=2 freqs=20750 dts=5
.step amp=2.5 freqs=20750 dts=5
.step amp=3 freqs=20750 dts=5
.step amp=3.5 freqs=20750 dts=5
.step amp=4 freqs=20750 dts=5
.step amp=4.5 freqs=20750 dts=5
.step amp=5 freqs=20750 dts=5
.step amp=1 freqs=21000 dts=5
.step amp=1.5 freqs=21000 dts=5
.step amp=2 freqs=21000 dts=5
.step amp=2.5 freqs=21000 dts=5
.step amp=3 freqs=21000 dts=5
.step amp=3.5 freqs=21000 dts=5
.step amp=4 freqs=21000 dts=5
.step amp=4.5 freqs=21000 dts=5
.step amp=5 freqs=21000 dts=5
.step amp=1 freqs=21250 dts=5
.step amp=1.5 freqs=21250 dts=5
.step amp=2 freqs=21250 dts=5
.step amp=2.5 freqs=21250 dts=5
.step amp=3 freqs=21250 dts=5
.step amp=3.5 freqs=21250 dts=5
.step amp=4 freqs=21250 dts=5
.step amp=4.5 freqs=21250 dts=5
.step amp=5 freqs=21250 dts=5
.step amp=1 freqs=21500 dts=5
.step amp=1.5 freqs=21500 dts=5
.step amp=2 freqs=21500 dts=5
.step amp=2.5 freqs=21500 dts=5
.step amp=3 freqs=21500 dts=5
.step amp=3.5 freqs=21500 dts=5
.step amp=4 freqs=21500 dts=5
.step amp=4.5 freqs=21500 dts=5
.step amp=5 freqs=21500 dts=5
.step amp=1 freqs=21750 dts=5
.step amp=1.5 freqs=21750 dts=5
.step amp=2 freqs=21750 dts=5
.step amp=2.5 freqs=21750 dts=5
.step amp=3 freqs=21750 dts=5
.step amp=3.5 freqs=21750 dts=5
.step amp=4 freqs=21750 dts=5
.step amp=4.5 freqs=21750 dts=5
.step amp=5 freqs=21750 dts=5
.step amp=1 freqs=22000 dts=5
.step amp=1.5 freqs=22000 dts=5
.step amp=2 freqs=22000 dts=5
.step amp=2.5 freqs=22000 dts=5
.step amp=3 freqs=22000 dts=5
.step amp=3.5 freqs=22000 dts=5
.step amp=4 freqs=22000 dts=5
.step amp=4.5 freqs=22000 dts=5
.step amp=5 freqs=22000 dts=5
.step amp=1 freqs=22250 dts=5
.step amp=1.5 freqs=22250 dts=5
.step amp=2 freqs=22250 dts=5
.step amp=2.5 freqs=22250 dts=5
.step amp=3 freqs=22250 dts=5
.step amp=3.5 freqs=22250 dts=5
.step amp=4 freqs=22250 dts=5
.step amp=4.5 freqs=22250 dts=5
.step amp=5 freqs=22250 dts=5
.step amp=1 freqs=22500 dts=5
.step amp=1.5 freqs=22500 dts=5
.step amp=2 freqs=22500 dts=5
.step amp=2.5 freqs=22500 dts=5
.step amp=3 freqs=22500 dts=5
.step amp=3.5 freqs=22500 dts=5
.step amp=4 freqs=22500 dts=5
.step amp=4.5 freqs=22500 dts=5
.step amp=5 freqs=22500 dts=5
.step amp=1 freqs=22750 dts=5
.step amp=1.5 freqs=22750 dts=5
.step amp=2 freqs=22750 dts=5
.step amp=2.5 freqs=22750 dts=5
.step amp=3 freqs=22750 dts=5
.step amp=3.5 freqs=22750 dts=5
.step amp=4 freqs=22750 dts=5
.step amp=4.5 freqs=22750 dts=5
.step amp=5 freqs=22750 dts=5
.step amp=1 freqs=23000 dts=5
.step amp=1.5 freqs=23000 dts=5
.step amp=2 freqs=23000 dts=5
.step amp=2.5 freqs=23000 dts=5
.step amp=3 freqs=23000 dts=5
.step amp=3.5 freqs=23000 dts=5
.step amp=4 freqs=23000 dts=5
.step amp=4.5 freqs=23000 dts=5
.step amp=5 freqs=23000 dts=5
.step amp=1 freqs=23250 dts=5
.step amp=1.5 freqs=23250 dts=5
.step amp=2 freqs=23250 dts=5
.step amp=2.5 freqs=23250 dts=5
.step amp=3 freqs=23250 dts=5
.step amp=3.5 freqs=23250 dts=5
.step amp=4 freqs=23250 dts=5
.step amp=4.5 freqs=23250 dts=5
.step amp=5 freqs=23250 dts=5
.step amp=1 freqs=23500 dts=5
.step amp=1.5 freqs=23500 dts=5
.step amp=2 freqs=23500 dts=5
.step amp=2.5 freqs=23500 dts=5
.step amp=3 freqs=23500 dts=5
.step amp=3.5 freqs=23500 dts=5
.step amp=4 freqs=23500 dts=5
.step amp=4.5 freqs=23500 dts=5
.step amp=5 freqs=23500 dts=5
.step amp=1 freqs=23750 dts=5
.step amp=1.5 freqs=23750 dts=5
.step amp=2 freqs=23750 dts=5
.step amp=2.5 freqs=23750 dts=5
.step amp=3 freqs=23750 dts=5
.step amp=3.5 freqs=23750 dts=5
.step amp=4 freqs=23750 dts=5
.step amp=4.5 freqs=23750 dts=5
.step amp=5 freqs=23750 dts=5
.step amp=1 freqs=24000 dts=5
.step amp=1.5 freqs=24000 dts=5
.step amp=2 freqs=24000 dts=5
.step amp=2.5 freqs=24000 dts=5
.step amp=3 freqs=24000 dts=5
.step amp=3.5 freqs=24000 dts=5
.step amp=4 freqs=24000 dts=5
.step amp=4.5 freqs=24000 dts=5
.step amp=5 freqs=24000 dts=5
.step amp=1 freqs=24250 dts=5
.step amp=1.5 freqs=24250 dts=5
.step amp=2 freqs=24250 dts=5
.step amp=2.5 freqs=24250 dts=5
.step amp=3 freqs=24250 dts=5
.step amp=3.5 freqs=24250 dts=5
.step amp=4 freqs=24250 dts=5
.step amp=4.5 freqs=24250 dts=5
.step amp=5 freqs=24250 dts=5
.step amp=1 freqs=24500 dts=5
.step amp=1.5 freqs=24500 dts=5
.step amp=2 freqs=24500 dts=5
.step amp=2.5 freqs=24500 dts=5
.step amp=3 freqs=24500 dts=5
.step amp=3.5 freqs=24500 dts=5
.step amp=4 freqs=24500 dts=5
.step amp=4.5 freqs=24500 dts=5
.step amp=5 freqs=24500 dts=5
.step amp=1 freqs=24750 dts=5
.step amp=1.5 freqs=24750 dts=5
.step amp=2 freqs=24750 dts=5
.step amp=2.5 freqs=24750 dts=5
.step amp=3 freqs=24750 dts=5
.step amp=3.5 freqs=24750 dts=5
.step amp=4 freqs=24750 dts=5
.step amp=4.5 freqs=24750 dts=5
.step amp=5 freqs=24750 dts=5
.step amp=1 freqs=25000 dts=5
.step amp=1.5 freqs=25000 dts=5
.step amp=2 freqs=25000 dts=5
.step amp=2.5 freqs=25000 dts=5
.step amp=3 freqs=25000 dts=5
.step amp=3.5 freqs=25000 dts=5
.step amp=4 freqs=25000 dts=5
.step amp=4.5 freqs=25000 dts=5
.step amp=5 freqs=25000 dts=5
.step amp=1 freqs=20000 dts=10
.step amp=1.5 freqs=20000 dts=10
.step amp=2 freqs=20000 dts=10
.step amp=2.5 freqs=20000 dts=10
.step amp=3 freqs=20000 dts=10
.step amp=3.5 freqs=20000 dts=10
.step amp=4 freqs=20000 dts=10
.step amp=4.5 freqs=20000 dts=10
.step amp=5 freqs=20000 dts=10
.step amp=1 freqs=20250 dts=10
.step amp=1.5 freqs=20250 dts=10
.step amp=2 freqs=20250 dts=10
.step amp=2.5 freqs=20250 dts=10
.step amp=3 freqs=20250 dts=10
.step amp=3.5 freqs=20250 dts=10
.step amp=4 freqs=20250 dts=10
.step amp=4.5 freqs=20250 dts=10
.step amp=5 freqs=20250 dts=10
.step amp=1 freqs=20500 dts=10
.step amp=1.5 freqs=20500 dts=10
.step amp=2 freqs=20500 dts=10
.step amp=2.5 freqs=20500 dts=10
.step amp=3 freqs=20500 dts=10
.step amp=3.5 freqs=20500 dts=10
.step amp=4 freqs=20500 dts=10
.step amp=4.5 freqs=20500 dts=10
.step amp=5 freqs=20500 dts=10
.step amp=1 freqs=20750 dts=10
.step amp=1.5 freqs=20750 dts=10
.step amp=2 freqs=20750 dts=10
.step amp=2.5 freqs=20750 dts=10
.step amp=3 freqs=20750 dts=10
.step amp=3.5 freqs=20750 dts=10
.step amp=4 freqs=20750 dts=10
.step amp=4.5 freqs=20750 dts=10
.step amp=5 freqs=20750 dts=10
.step amp=1 freqs=21000 dts=10
.step amp=1.5 freqs=21000 dts=10
.step amp=2 freqs=21000 dts=10
.step amp=2.5 freqs=21000 dts=10
.step amp=3 freqs=21000 dts=10
.step amp=3.5 freqs=21000 dts=10
.step amp=4 freqs=21000 dts=10
.step amp=4.5 freqs=21000 dts=10
.step amp=5 freqs=21000 dts=10
.step amp=1 freqs=21250 dts=10
.step amp=1.5 freqs=21250 dts=10
.step amp=2 freqs=21250 dts=10
.step amp=2.5 freqs=21250 dts=10
.step amp=3 freqs=21250 dts=10
.step amp=3.5 freqs=21250 dts=10
.step amp=4 freqs=21250 dts=10
.step amp=4.5 freqs=21250 dts=10
.step amp=5 freqs=21250 dts=10
.step amp=1 freqs=21500 dts=10
.step amp=1.5 freqs=21500 dts=10
.step amp=2 freqs=21500 dts=10
.step amp=2.5 freqs=21500 dts=10
.step amp=3 freqs=21500 dts=10
.step amp=3.5 freqs=21500 dts=10
.step amp=4 freqs=21500 dts=10
.step amp=4.5 freqs=21500 dts=10
.step amp=5 freqs=21500 dts=10
.step amp=1 freqs=21750 dts=10
.step amp=1.5 freqs=21750 dts=10
.step amp=2 freqs=21750 dts=10
.step amp=2.5 freqs=21750 dts=10
.step amp=3 freqs=21750 dts=10
.step amp=3.5 freqs=21750 dts=10
.step amp=4 freqs=21750 dts=10
.step amp=4.5 freqs=21750 dts=10
.step amp=5 freqs=21750 dts=10
.step amp=1 freqs=22000 dts=10
.step amp=1.5 freqs=22000 dts=10
.step amp=2 freqs=22000 dts=10
.step amp=2.5 freqs=22000 dts=10
.step amp=3 freqs=22000 dts=10
.step amp=3.5 freqs=22000 dts=10
.step amp=4 freqs=22000 dts=10
.step amp=4.5 freqs=22000 dts=10
.step amp=5 freqs=22000 dts=10
.step amp=1 freqs=22250 dts=10
.step amp=1.5 freqs=22250 dts=10
.step amp=2 freqs=22250 dts=10
.step amp=2.5 freqs=22250 dts=10
.step amp=3 freqs=22250 dts=10
.step amp=3.5 freqs=22250 dts=10
.step amp=4 freqs=22250 dts=10
.step amp=4.5 freqs=22250 dts=10
.step amp=5 freqs=22250 dts=10
.step amp=1 freqs=22500 dts=10
.step amp=1.5 freqs=22500 dts=10
.step amp=2 freqs=22500 dts=10
.step amp=2.5 freqs=22500 dts=10
.step amp=3 freqs=22500 dts=10
.step amp=3.5 freqs=22500 dts=10
.step amp=4 freqs=22500 dts=10
.step amp=4.5 freqs=22500 dts=10
.step amp=5 freqs=22500 dts=10
.step amp=1 freqs=22750 dts=10
.step amp=1.5 freqs=22750 dts=10
.step amp=2 freqs=22750 dts=10
.step amp=2.5 freqs=22750 dts=10
.step amp=3 freqs=22750 dts=10
.step amp=3.5 freqs=22750 dts=10
.step amp=4 freqs=22750 dts=10
.step amp=4.5 freqs=22750 dts=10
.step amp=5 freqs=22750 dts=10
.step amp=1 freqs=23000 dts=10
.step amp=1.5 freqs=23000 dts=10
.step amp=2 freqs=23000 dts=10
.step amp=2.5 freqs=23000 dts=10
.step amp=3 freqs=23000 dts=10
.step amp=3.5 freqs=23000 dts=10
.step amp=4 freqs=23000 dts=10
.step amp=4.5 freqs=23000 dts=10
.step amp=5 freqs=23000 dts=10
.step amp=1 freqs=23250 dts=10
.step amp=1.5 freqs=23250 dts=10
.step amp=2 freqs=23250 dts=10
.step amp=2.5 freqs=23250 dts=10
.step amp=3 freqs=23250 dts=10
.step amp=3.5 freqs=23250 dts=10
.step amp=4 freqs=23250 dts=10
.step amp=4.5 freqs=23250 dts=10
.step amp=5 freqs=23250 dts=10
.step amp=1 freqs=23500 dts=10
.step amp=1.5 freqs=23500 dts=10
.step amp=2 freqs=23500 dts=10
.step amp=2.5 freqs=23500 dts=10
.step amp=3 freqs=23500 dts=10
.step amp=3.5 freqs=23500 dts=10
.step amp=4 freqs=23500 dts=10
.step amp=4.5 freqs=23500 dts=10
.step amp=5 freqs=23500 dts=10
.step amp=1 freqs=23750 dts=10
.step amp=1.5 freqs=23750 dts=10
.step amp=2 freqs=23750 dts=10
.step amp=2.5 freqs=23750 dts=10
.step amp=3 freqs=23750 dts=10
.step amp=3.5 freqs=23750 dts=10
.step amp=4 freqs=23750 dts=10
.step amp=4.5 freqs=23750 dts=10
.step amp=5 freqs=23750 dts=10
.step amp=1 freqs=24000 dts=10
.step amp=1.5 freqs=24000 dts=10
.step amp=2 freqs=24000 dts=10
.step amp=2.5 freqs=24000 dts=10
.step amp=3 freqs=24000 dts=10
.step amp=3.5 freqs=24000 dts=10
.step amp=4 freqs=24000 dts=10
.step amp=4.5 freqs=24000 dts=10
.step amp=5 freqs=24000 dts=10
.step amp=1 freqs=24250 dts=10
.step amp=1.5 freqs=24250 dts=10
.step amp=2 freqs=24250 dts=10
.step amp=2.5 freqs=24250 dts=10
.step amp=3 freqs=24250 dts=10
.step amp=3.5 freqs=24250 dts=10
.step amp=4 freqs=24250 dts=10
.step amp=4.5 freqs=24250 dts=10
.step amp=5 freqs=24250 dts=10
.step amp=1 freqs=24500 dts=10
.step amp=1.5 freqs=24500 dts=10
.step amp=2 freqs=24500 dts=10
.step amp=2.5 freqs=24500 dts=10
.step amp=3 freqs=24500 dts=10
.step amp=3.5 freqs=24500 dts=10
.step amp=4 freqs=24500 dts=10
.step amp=4.5 freqs=24500 dts=10
.step amp=5 freqs=24500 dts=10
.step amp=1 freqs=24750 dts=10
.step amp=1.5 freqs=24750 dts=10
.step amp=2 freqs=24750 dts=10
.step amp=2.5 freqs=24750 dts=10
.step amp=3 freqs=24750 dts=10
.step amp=3.5 freqs=24750 dts=10
.step amp=4 freqs=24750 dts=10
.step amp=4.5 freqs=24750 dts=10
.step amp=5 freqs=24750 dts=10
.step amp=1 freqs=25000 dts=10
.step amp=1.5 freqs=25000 dts=10
.step amp=2 freqs=25000 dts=10
.step amp=2.5 freqs=25000 dts=10
.step amp=3 freqs=25000 dts=10
.step amp=3.5 freqs=25000 dts=10
.step amp=4 freqs=25000 dts=10
.step amp=4.5 freqs=25000 dts=10
.step amp=5 freqs=25000 dts=10
.step amp=1 freqs=20000 dts=15
.step amp=1.5 freqs=20000 dts=15
.step amp=2 freqs=20000 dts=15
.step amp=2.5 freqs=20000 dts=15
.step amp=3 freqs=20000 dts=15
.step amp=3.5 freqs=20000 dts=15
.step amp=4 freqs=20000 dts=15
.step amp=4.5 freqs=20000 dts=15
.step amp=5 freqs=20000 dts=15
.step amp=1 freqs=20250 dts=15
.step amp=1.5 freqs=20250 dts=15
.step amp=2 freqs=20250 dts=15
.step amp=2.5 freqs=20250 dts=15
.step amp=3 freqs=20250 dts=15
.step amp=3.5 freqs=20250 dts=15
.step amp=4 freqs=20250 dts=15
.step amp=4.5 freqs=20250 dts=15
.step amp=5 freqs=20250 dts=15
.step amp=1 freqs=20500 dts=15
.step amp=1.5 freqs=20500 dts=15
.step amp=2 freqs=20500 dts=15
.step amp=2.5 freqs=20500 dts=15
.step amp=3 freqs=20500 dts=15
.step amp=3.5 freqs=20500 dts=15
.step amp=4 freqs=20500 dts=15
.step amp=4.5 freqs=20500 dts=15
.step amp=5 freqs=20500 dts=15
.step amp=1 freqs=20750 dts=15
.step amp=1.5 freqs=20750 dts=15
.step amp=2 freqs=20750 dts=15
.step amp=2.5 freqs=20750 dts=15
.step amp=3 freqs=20750 dts=15
.step amp=3.5 freqs=20750 dts=15
.step amp=4 freqs=20750 dts=15
.step amp=4.5 freqs=20750 dts=15
.step amp=5 freqs=20750 dts=15
.step amp=1 freqs=21000 dts=15
.step amp=1.5 freqs=21000 dts=15
.step amp=2 freqs=21000 dts=15
.step amp=2.5 freqs=21000 dts=15
.step amp=3 freqs=21000 dts=15
.step amp=3.5 freqs=21000 dts=15
.step amp=4 freqs=21000 dts=15
.step amp=4.5 freqs=21000 dts=15
.step amp=5 freqs=21000 dts=15
.step amp=1 freqs=21250 dts=15
.step amp=1.5 freqs=21250 dts=15
.step amp=2 freqs=21250 dts=15
.step amp=2.5 freqs=21250 dts=15
.step amp=3 freqs=21250 dts=15
.step amp=3.5 freqs=21250 dts=15
.step amp=4 freqs=21250 dts=15
.step amp=4.5 freqs=21250 dts=15
.step amp=5 freqs=21250 dts=15
.step amp=1 freqs=21500 dts=15
.step amp=1.5 freqs=21500 dts=15
.step amp=2 freqs=21500 dts=15
.step amp=2.5 freqs=21500 dts=15
.step amp=3 freqs=21500 dts=15
.step amp=3.5 freqs=21500 dts=15
.step amp=4 freqs=21500 dts=15
.step amp=4.5 freqs=21500 dts=15
.step amp=5 freqs=21500 dts=15
.step amp=1 freqs=21750 dts=15
.step amp=1.5 freqs=21750 dts=15
.step amp=2 freqs=21750 dts=15
.step amp=2.5 freqs=21750 dts=15
.step amp=3 freqs=21750 dts=15
.step amp=3.5 freqs=21750 dts=15
.step amp=4 freqs=21750 dts=15
.step amp=4.5 freqs=21750 dts=15
.step amp=5 freqs=21750 dts=15
.step amp=1 freqs=22000 dts=15
.step amp=1.5 freqs=22000 dts=15
.step amp=2 freqs=22000 dts=15
.step amp=2.5 freqs=22000 dts=15
.step amp=3 freqs=22000 dts=15
.step amp=3.5 freqs=22000 dts=15
.step amp=4 freqs=22000 dts=15
.step amp=4.5 freqs=22000 dts=15
.step amp=5 freqs=22000 dts=15
.step amp=1 freqs=22250 dts=15
.step amp=1.5 freqs=22250 dts=15
.step amp=2 freqs=22250 dts=15
.step amp=2.5 freqs=22250 dts=15
.step amp=3 freqs=22250 dts=15
.step amp=3.5 freqs=22250 dts=15
.step amp=4 freqs=22250 dts=15
.step amp=4.5 freqs=22250 dts=15
.step amp=5 freqs=22250 dts=15
.step amp=1 freqs=22500 dts=15
.step amp=1.5 freqs=22500 dts=15
.step amp=2 freqs=22500 dts=15
.step amp=2.5 freqs=22500 dts=15
.step amp=3 freqs=22500 dts=15
.step amp=3.5 freqs=22500 dts=15
.step amp=4 freqs=22500 dts=15
.step amp=4.5 freqs=22500 dts=15
.step amp=5 freqs=22500 dts=15
.step amp=1 freqs=22750 dts=15
.step amp=1.5 freqs=22750 dts=15
.step amp=2 freqs=22750 dts=15
.step amp=2.5 freqs=22750 dts=15
.step amp=3 freqs=22750 dts=15
.step amp=3.5 freqs=22750 dts=15
.step amp=4 freqs=22750 dts=15
.step amp=4.5 freqs=22750 dts=15
.step amp=5 freqs=22750 dts=15
.step amp=1 freqs=23000 dts=15
.step amp=1.5 freqs=23000 dts=15
.step amp=2 freqs=23000 dts=15
.step amp=2.5 freqs=23000 dts=15
.step amp=3 freqs=23000 dts=15
.step amp=3.5 freqs=23000 dts=15
.step amp=4 freqs=23000 dts=15
.step amp=4.5 freqs=23000 dts=15
.step amp=5 freqs=23000 dts=15
.step amp=1 freqs=23250 dts=15
.step amp=1.5 freqs=23250 dts=15
.step amp=2 freqs=23250 dts=15
.step amp=2.5 freqs=23250 dts=15
.step amp=3 freqs=23250 dts=15
.step amp=3.5 freqs=23250 dts=15
.step amp=4 freqs=23250 dts=15
.step amp=4.5 freqs=23250 dts=15
.step amp=5 freqs=23250 dts=15
.step amp=1 freqs=23500 dts=15
.step amp=1.5 freqs=23500 dts=15
.step amp=2 freqs=23500 dts=15
.step amp=2.5 freqs=23500 dts=15
.step amp=3 freqs=23500 dts=15
.step amp=3.5 freqs=23500 dts=15
.step amp=4 freqs=23500 dts=15
.step amp=4.5 freqs=23500 dts=15
.step amp=5 freqs=23500 dts=15
.step amp=1 freqs=23750 dts=15
.step amp=1.5 freqs=23750 dts=15
.step amp=2 freqs=23750 dts=15
.step amp=2.5 freqs=23750 dts=15
.step amp=3 freqs=23750 dts=15
.step amp=3.5 freqs=23750 dts=15
.step amp=4 freqs=23750 dts=15
.step amp=4.5 freqs=23750 dts=15
.step amp=5 freqs=23750 dts=15
.step amp=1 freqs=24000 dts=15
.step amp=1.5 freqs=24000 dts=15
.step amp=2 freqs=24000 dts=15
.step amp=2.5 freqs=24000 dts=15
.step amp=3 freqs=24000 dts=15
.step amp=3.5 freqs=24000 dts=15
.step amp=4 freqs=24000 dts=15
.step amp=4.5 freqs=24000 dts=15
.step amp=5 freqs=24000 dts=15
.step amp=1 freqs=24250 dts=15
.step amp=1.5 freqs=24250 dts=15
.step amp=2 freqs=24250 dts=15
.step amp=2.5 freqs=24250 dts=15
.step amp=3 freqs=24250 dts=15
.step amp=3.5 freqs=24250 dts=15
.step amp=4 freqs=24250 dts=15
.step amp=4.5 freqs=24250 dts=15
.step amp=5 freqs=24250 dts=15
.step amp=1 freqs=24500 dts=15
.step amp=1.5 freqs=24500 dts=15
.step amp=2 freqs=24500 dts=15
.step amp=2.5 freqs=24500 dts=15
.step amp=3 freqs=24500 dts=15
.step amp=3.5 freqs=24500 dts=15
.step amp=4 freqs=24500 dts=15
.step amp=4.5 freqs=24500 dts=15
.step amp=5 freqs=24500 dts=15
.step amp=1 freqs=24750 dts=15
.step amp=1.5 freqs=24750 dts=15
.step amp=2 freqs=24750 dts=15
.step amp=2.5 freqs=24750 dts=15
.step amp=3 freqs=24750 dts=15
.step amp=3.5 freqs=24750 dts=15
.step amp=4 freqs=24750 dts=15
.step amp=4.5 freqs=24750 dts=15
.step amp=5 freqs=24750 dts=15
.step amp=1 freqs=25000 dts=15
.step amp=1.5 freqs=25000 dts=15
.step amp=2 freqs=25000 dts=15
.step amp=2.5 freqs=25000 dts=15
.step amp=3 freqs=25000 dts=15
.step amp=3.5 freqs=25000 dts=15
.step amp=4 freqs=25000 dts=15
.step amp=4.5 freqs=25000 dts=15
.step amp=5 freqs=25000 dts=15
.step amp=1 freqs=20000 dts=20
.step amp=1.5 freqs=20000 dts=20
.step amp=2 freqs=20000 dts=20
.step amp=2.5 freqs=20000 dts=20
.step amp=3 freqs=20000 dts=20
.step amp=3.5 freqs=20000 dts=20
.step amp=4 freqs=20000 dts=20
.step amp=4.5 freqs=20000 dts=20
.step amp=5 freqs=20000 dts=20
.step amp=1 freqs=20250 dts=20
.step amp=1.5 freqs=20250 dts=20
.step amp=2 freqs=20250 dts=20
.step amp=2.5 freqs=20250 dts=20
.step amp=3 freqs=20250 dts=20
.step amp=3.5 freqs=20250 dts=20
.step amp=4 freqs=20250 dts=20
.step amp=4.5 freqs=20250 dts=20
.step amp=5 freqs=20250 dts=20
.step amp=1 freqs=20500 dts=20
.step amp=1.5 freqs=20500 dts=20
.step amp=2 freqs=20500 dts=20
.step amp=2.5 freqs=20500 dts=20
.step amp=3 freqs=20500 dts=20
.step amp=3.5 freqs=20500 dts=20
.step amp=4 freqs=20500 dts=20
.step amp=4.5 freqs=20500 dts=20
.step amp=5 freqs=20500 dts=20
.step amp=1 freqs=20750 dts=20
.step amp=1.5 freqs=20750 dts=20
.step amp=2 freqs=20750 dts=20
.step amp=2.5 freqs=20750 dts=20
.step amp=3 freqs=20750 dts=20
.step amp=3.5 freqs=20750 dts=20
.step amp=4 freqs=20750 dts=20
.step amp=4.5 freqs=20750 dts=20
.step amp=5 freqs=20750 dts=20
.step amp=1 freqs=21000 dts=20
.step amp=1.5 freqs=21000 dts=20
.step amp=2 freqs=21000 dts=20
.step amp=2.5 freqs=21000 dts=20
.step amp=3 freqs=21000 dts=20
.step amp=3.5 freqs=21000 dts=20
.step amp=4 freqs=21000 dts=20
.step amp=4.5 freqs=21000 dts=20
.step amp=5 freqs=21000 dts=20
.step amp=1 freqs=21250 dts=20
.step amp=1.5 freqs=21250 dts=20
.step amp=2 freqs=21250 dts=20
.step amp=2.5 freqs=21250 dts=20
.step amp=3 freqs=21250 dts=20
.step amp=3.5 freqs=21250 dts=20
.step amp=4 freqs=21250 dts=20
.step amp=4.5 freqs=21250 dts=20
.step amp=5 freqs=21250 dts=20
.step amp=1 freqs=21500 dts=20
.step amp=1.5 freqs=21500 dts=20
.step amp=2 freqs=21500 dts=20
.step amp=2.5 freqs=21500 dts=20
.step amp=3 freqs=21500 dts=20
.step amp=3.5 freqs=21500 dts=20
.step amp=4 freqs=21500 dts=20
.step amp=4.5 freqs=21500 dts=20
.step amp=5 freqs=21500 dts=20
.step amp=1 freqs=21750 dts=20
.step amp=1.5 freqs=21750 dts=20
.step amp=2 freqs=21750 dts=20
.step amp=2.5 freqs=21750 dts=20
.step amp=3 freqs=21750 dts=20
.step amp=3.5 freqs=21750 dts=20
.step amp=4 freqs=21750 dts=20
.step amp=4.5 freqs=21750 dts=20
.step amp=5 freqs=21750 dts=20
.step amp=1 freqs=22000 dts=20
.step amp=1.5 freqs=22000 dts=20
.step amp=2 freqs=22000 dts=20
.step amp=2.5 freqs=22000 dts=20
.step amp=3 freqs=22000 dts=20
.step amp=3.5 freqs=22000 dts=20
.step amp=4 freqs=22000 dts=20
.step amp=4.5 freqs=22000 dts=20
.step amp=5 freqs=22000 dts=20
.step amp=1 freqs=22250 dts=20
.step amp=1.5 freqs=22250 dts=20
.step amp=2 freqs=22250 dts=20
.step amp=2.5 freqs=22250 dts=20
.step amp=3 freqs=22250 dts=20
.step amp=3.5 freqs=22250 dts=20
.step amp=4 freqs=22250 dts=20
.step amp=4.5 freqs=22250 dts=20
.step amp=5 freqs=22250 dts=20
.step amp=1 freqs=22500 dts=20
.step amp=1.5 freqs=22500 dts=20
.step amp=2 freqs=22500 dts=20
.step amp=2.5 freqs=22500 dts=20
.step amp=3 freqs=22500 dts=20
.step amp=3.5 freqs=22500 dts=20
.step amp=4 freqs=22500 dts=20
.step amp=4.5 freqs=22500 dts=20
.step amp=5 freqs=22500 dts=20
.step amp=1 freqs=22750 dts=20
.step amp=1.5 freqs=22750 dts=20
.step amp=2 freqs=22750 dts=20
.step amp=2.5 freqs=22750 dts=20
.step amp=3 freqs=22750 dts=20
.step amp=3.5 freqs=22750 dts=20
.step amp=4 freqs=22750 dts=20
.step amp=4.5 freqs=22750 dts=20
.step amp=5 freqs=22750 dts=20
.step amp=1 freqs=23000 dts=20
.step amp=1.5 freqs=23000 dts=20
.step amp=2 freqs=23000 dts=20
.step amp=2.5 freqs=23000 dts=20
.step amp=3 freqs=23000 dts=20
.step amp=3.5 freqs=23000 dts=20
.step amp=4 freqs=23000 dts=20
.step amp=4.5 freqs=23000 dts=20
.step amp=5 freqs=23000 dts=20
.step amp=1 freqs=23250 dts=20
.step amp=1.5 freqs=23250 dts=20
.step amp=2 freqs=23250 dts=20
.step amp=2.5 freqs=23250 dts=20
.step amp=3 freqs=23250 dts=20
.step amp=3.5 freqs=23250 dts=20
.step amp=4 freqs=23250 dts=20
.step amp=4.5 freqs=23250 dts=20
.step amp=5 freqs=23250 dts=20
.step amp=1 freqs=23500 dts=20
.step amp=1.5 freqs=23500 dts=20
.step amp=2 freqs=23500 dts=20
.step amp=2.5 freqs=23500 dts=20
.step amp=3 freqs=23500 dts=20
.step amp=3.5 freqs=23500 dts=20
.step amp=4 freqs=23500 dts=20
.step amp=4.5 freqs=23500 dts=20
.step amp=5 freqs=23500 dts=20
.step amp=1 freqs=23750 dts=20
.step amp=1.5 freqs=23750 dts=20
.step amp=2 freqs=23750 dts=20
.step amp=2.5 freqs=23750 dts=20
.step amp=3 freqs=23750 dts=20
.step amp=3.5 freqs=23750 dts=20
.step amp=4 freqs=23750 dts=20
.step amp=4.5 freqs=23750 dts=20
.step amp=5 freqs=23750 dts=20
.step amp=1 freqs=24000 dts=20
.step amp=1.5 freqs=24000 dts=20
.step amp=2 freqs=24000 dts=20
.step amp=2.5 freqs=24000 dts=20
.step amp=3 freqs=24000 dts=20
.step amp=3.5 freqs=24000 dts=20
.step amp=4 freqs=24000 dts=20
.step amp=4.5 freqs=24000 dts=20
.step amp=5 freqs=24000 dts=20
.step amp=1 freqs=24250 dts=20
.step amp=1.5 freqs=24250 dts=20
.step amp=2 freqs=24250 dts=20
.step amp=2.5 freqs=24250 dts=20
.step amp=3 freqs=24250 dts=20
.step amp=3.5 freqs=24250 dts=20
.step amp=4 freqs=24250 dts=20
.step amp=4.5 freqs=24250 dts=20
.step amp=5 freqs=24250 dts=20
.step amp=1 freqs=24500 dts=20
.step amp=1.5 freqs=24500 dts=20
.step amp=2 freqs=24500 dts=20
.step amp=2.5 freqs=24500 dts=20
.step amp=3 freqs=24500 dts=20
.step amp=3.5 freqs=24500 dts=20
.step amp=4 freqs=24500 dts=20
.step amp=4.5 freqs=24500 dts=20
.step amp=5 freqs=24500 dts=20
.step amp=1 freqs=24750 dts=20
.step amp=1.5 freqs=24750 dts=20
.step amp=2 freqs=24750 dts=20
.step amp=2.5 freqs=24750 dts=20
.step amp=3 freqs=24750 dts=20
.step amp=3.5 freqs=24750 dts=20
.step amp=4 freqs=24750 dts=20
.step amp=4.5 freqs=24750 dts=20
.step amp=5 freqs=24750 dts=20
.step amp=1 freqs=25000 dts=20
.step amp=1.5 freqs=25000 dts=20
.step amp=2 freqs=25000 dts=20
.step amp=2.5 freqs=25000 dts=20
.step amp=3 freqs=25000 dts=20
.step amp=3.5 freqs=25000 dts=20
.step amp=4 freqs=25000 dts=20
.step amp=4.5 freqs=25000 dts=20
.step amp=5 freqs=25000 dts=20
.step amp=1 freqs=20000 dts=25
.step amp=1.5 freqs=20000 dts=25
.step amp=2 freqs=20000 dts=25
.step amp=2.5 freqs=20000 dts=25
.step amp=3 freqs=20000 dts=25
.step amp=3.5 freqs=20000 dts=25
.step amp=4 freqs=20000 dts=25
.step amp=4.5 freqs=20000 dts=25
.step amp=5 freqs=20000 dts=25
.step amp=1 freqs=20250 dts=25
.step amp=1.5 freqs=20250 dts=25
.step amp=2 freqs=20250 dts=25
.step amp=2.5 freqs=20250 dts=25
.step amp=3 freqs=20250 dts=25
.step amp=3.5 freqs=20250 dts=25
.step amp=4 freqs=20250 dts=25
.step amp=4.5 freqs=20250 dts=25
.step amp=5 freqs=20250 dts=25
.step amp=1 freqs=20500 dts=25
.step amp=1.5 freqs=20500 dts=25
.step amp=2 freqs=20500 dts=25
.step amp=2.5 freqs=20500 dts=25
.step amp=3 freqs=20500 dts=25
.step amp=3.5 freqs=20500 dts=25
.step amp=4 freqs=20500 dts=25
.step amp=4.5 freqs=20500 dts=25
.step amp=5 freqs=20500 dts=25
.step amp=1 freqs=20750 dts=25
.step amp=1.5 freqs=20750 dts=25
.step amp=2 freqs=20750 dts=25
.step amp=2.5 freqs=20750 dts=25
.step amp=3 freqs=20750 dts=25
.step amp=3.5 freqs=20750 dts=25
.step amp=4 freqs=20750 dts=25
.step amp=4.5 freqs=20750 dts=25
.step amp=5 freqs=20750 dts=25
.step amp=1 freqs=21000 dts=25
.step amp=1.5 freqs=21000 dts=25
.step amp=2 freqs=21000 dts=25
.step amp=2.5 freqs=21000 dts=25
.step amp=3 freqs=21000 dts=25
.step amp=3.5 freqs=21000 dts=25
.step amp=4 freqs=21000 dts=25
.step amp=4.5 freqs=21000 dts=25
.step amp=5 freqs=21000 dts=25
.step amp=1 freqs=21250 dts=25
.step amp=1.5 freqs=21250 dts=25
.step amp=2 freqs=21250 dts=25
.step amp=2.5 freqs=21250 dts=25
.step amp=3 freqs=21250 dts=25
.step amp=3.5 freqs=21250 dts=25
.step amp=4 freqs=21250 dts=25
.step amp=4.5 freqs=21250 dts=25
.step amp=5 freqs=21250 dts=25
.step amp=1 freqs=21500 dts=25
.step amp=1.5 freqs=21500 dts=25
.step amp=2 freqs=21500 dts=25
.step amp=2.5 freqs=21500 dts=25
.step amp=3 freqs=21500 dts=25
.step amp=3.5 freqs=21500 dts=25
.step amp=4 freqs=21500 dts=25
.step amp=4.5 freqs=21500 dts=25
.step amp=5 freqs=21500 dts=25
.step amp=1 freqs=21750 dts=25
.step amp=1.5 freqs=21750 dts=25
.step amp=2 freqs=21750 dts=25
.step amp=2.5 freqs=21750 dts=25
.step amp=3 freqs=21750 dts=25
.step amp=3.5 freqs=21750 dts=25
.step amp=4 freqs=21750 dts=25
.step amp=4.5 freqs=21750 dts=25
.step amp=5 freqs=21750 dts=25
.step amp=1 freqs=22000 dts=25
.step amp=1.5 freqs=22000 dts=25
.step amp=2 freqs=22000 dts=25
.step amp=2.5 freqs=22000 dts=25
.step amp=3 freqs=22000 dts=25
.step amp=3.5 freqs=22000 dts=25
.step amp=4 freqs=22000 dts=25
.step amp=4.5 freqs=22000 dts=25
.step amp=5 freqs=22000 dts=25
.step amp=1 freqs=22250 dts=25
.step amp=1.5 freqs=22250 dts=25
.step amp=2 freqs=22250 dts=25
.step amp=2.5 freqs=22250 dts=25
.step amp=3 freqs=22250 dts=25
.step amp=3.5 freqs=22250 dts=25
.step amp=4 freqs=22250 dts=25
.step amp=4.5 freqs=22250 dts=25
.step amp=5 freqs=22250 dts=25
.step amp=1 freqs=22500 dts=25
.step amp=1.5 freqs=22500 dts=25
.step amp=2 freqs=22500 dts=25
.step amp=2.5 freqs=22500 dts=25
.step amp=3 freqs=22500 dts=25
.step amp=3.5 freqs=22500 dts=25
.step amp=4 freqs=22500 dts=25
.step amp=4.5 freqs=22500 dts=25
.step amp=5 freqs=22500 dts=25
.step amp=1 freqs=22750 dts=25
.step amp=1.5 freqs=22750 dts=25
.step amp=2 freqs=22750 dts=25
.step amp=2.5 freqs=22750 dts=25
.step amp=3 freqs=22750 dts=25
.step amp=3.5 freqs=22750 dts=25
.step amp=4 freqs=22750 dts=25
.step amp=4.5 freqs=22750 dts=25
.step amp=5 freqs=22750 dts=25
.step amp=1 freqs=23000 dts=25
.step amp=1.5 freqs=23000 dts=25
.step amp=2 freqs=23000 dts=25
.step amp=2.5 freqs=23000 dts=25
.step amp=3 freqs=23000 dts=25
.step amp=3.5 freqs=23000 dts=25
.step amp=4 freqs=23000 dts=25
.step amp=4.5 freqs=23000 dts=25
.step amp=5 freqs=23000 dts=25
.step amp=1 freqs=23250 dts=25
.step amp=1.5 freqs=23250 dts=25
.step amp=2 freqs=23250 dts=25
.step amp=2.5 freqs=23250 dts=25
.step amp=3 freqs=23250 dts=25
.step amp=3.5 freqs=23250 dts=25
.step amp=4 freqs=23250 dts=25
.step amp=4.5 freqs=23250 dts=25
.step amp=5 freqs=23250 dts=25
.step amp=1 freqs=23500 dts=25
.step amp=1.5 freqs=23500 dts=25
.step amp=2 freqs=23500 dts=25
.step amp=2.5 freqs=23500 dts=25
.step amp=3 freqs=23500 dts=25
.step amp=3.5 freqs=23500 dts=25
.step amp=4 freqs=23500 dts=25
.step amp=4.5 freqs=23500 dts=25
.step amp=5 freqs=23500 dts=25
.step amp=1 freqs=23750 dts=25
.step amp=1.5 freqs=23750 dts=25
.step amp=2 freqs=23750 dts=25
.step amp=2.5 freqs=23750 dts=25
.step amp=3 freqs=23750 dts=25
.step amp=3.5 freqs=23750 dts=25
.step amp=4 freqs=23750 dts=25
.step amp=4.5 freqs=23750 dts=25
.step amp=5 freqs=23750 dts=25
.step amp=1 freqs=24000 dts=25
.step amp=1.5 freqs=24000 dts=25
.step amp=2 freqs=24000 dts=25
.step amp=2.5 freqs=24000 dts=25
.step amp=3 freqs=24000 dts=25
.step amp=3.5 freqs=24000 dts=25
.step amp=4 freqs=24000 dts=25
.step amp=4.5 freqs=24000 dts=25
.step amp=5 freqs=24000 dts=25
.step amp=1 freqs=24250 dts=25
.step amp=1.5 freqs=24250 dts=25
.step amp=2 freqs=24250 dts=25
.step amp=2.5 freqs=24250 dts=25
.step amp=3 freqs=24250 dts=25
.step amp=3.5 freqs=24250 dts=25
.step amp=4 freqs=24250 dts=25
.step amp=4.5 freqs=24250 dts=25
.step amp=5 freqs=24250 dts=25
.step amp=1 freqs=24500 dts=25
.step amp=1.5 freqs=24500 dts=25
.step amp=2 freqs=24500 dts=25
.step amp=2.5 freqs=24500 dts=25
.step amp=3 freqs=24500 dts=25
.step amp=3.5 freqs=24500 dts=25
.step amp=4 freqs=24500 dts=25
.step amp=4.5 freqs=24500 dts=25
.step amp=5 freqs=24500 dts=25
.step amp=1 freqs=24750 dts=25
.step amp=1.5 freqs=24750 dts=25
.step amp=2 freqs=24750 dts=25
.step amp=2.5 freqs=24750 dts=25
.step amp=3 freqs=24750 dts=25
.step amp=3.5 freqs=24750 dts=25
.step amp=4 freqs=24750 dts=25
.step amp=4.5 freqs=24750 dts=25
.step amp=5 freqs=24750 dts=25
.step amp=1 freqs=25000 dts=25
.step amp=1.5 freqs=25000 dts=25
.step amp=2 freqs=25000 dts=25
.step amp=2.5 freqs=25000 dts=25
.step amp=3 freqs=25000 dts=25
.step amp=3.5 freqs=25000 dts=25
.step amp=4 freqs=25000 dts=25
.step amp=4.5 freqs=25000 dts=25
.step amp=5 freqs=25000 dts=25
.step amp=1 freqs=20000 dts=30
.step amp=1.5 freqs=20000 dts=30
.step amp=2 freqs=20000 dts=30
.step amp=2.5 freqs=20000 dts=30
.step amp=3 freqs=20000 dts=30
.step amp=3.5 freqs=20000 dts=30
.step amp=4 freqs=20000 dts=30
.step amp=4.5 freqs=20000 dts=30
.step amp=5 freqs=20000 dts=30
.step amp=1 freqs=20250 dts=30
.step amp=1.5 freqs=20250 dts=30
.step amp=2 freqs=20250 dts=30
.step amp=2.5 freqs=20250 dts=30
.step amp=3 freqs=20250 dts=30
.step amp=3.5 freqs=20250 dts=30
.step amp=4 freqs=20250 dts=30
.step amp=4.5 freqs=20250 dts=30
.step amp=5 freqs=20250 dts=30
.step amp=1 freqs=20500 dts=30
.step amp=1.5 freqs=20500 dts=30
.step amp=2 freqs=20500 dts=30
.step amp=2.5 freqs=20500 dts=30
.step amp=3 freqs=20500 dts=30
.step amp=3.5 freqs=20500 dts=30
.step amp=4 freqs=20500 dts=30
.step amp=4.5 freqs=20500 dts=30
.step amp=5 freqs=20500 dts=30
.step amp=1 freqs=20750 dts=30
.step amp=1.5 freqs=20750 dts=30
.step amp=2 freqs=20750 dts=30
.step amp=2.5 freqs=20750 dts=30
.step amp=3 freqs=20750 dts=30
.step amp=3.5 freqs=20750 dts=30
.step amp=4 freqs=20750 dts=30
.step amp=4.5 freqs=20750 dts=30
.step amp=5 freqs=20750 dts=30
.step amp=1 freqs=21000 dts=30
.step amp=1.5 freqs=21000 dts=30
.step amp=2 freqs=21000 dts=30
.step amp=2.5 freqs=21000 dts=30
.step amp=3 freqs=21000 dts=30
.step amp=3.5 freqs=21000 dts=30
.step amp=4 freqs=21000 dts=30
.step amp=4.5 freqs=21000 dts=30
.step amp=5 freqs=21000 dts=30
.step amp=1 freqs=21250 dts=30
.step amp=1.5 freqs=21250 dts=30
.step amp=2 freqs=21250 dts=30
.step amp=2.5 freqs=21250 dts=30
.step amp=3 freqs=21250 dts=30
.step amp=3.5 freqs=21250 dts=30
.step amp=4 freqs=21250 dts=30
.step amp=4.5 freqs=21250 dts=30
.step amp=5 freqs=21250 dts=30
.step amp=1 freqs=21500 dts=30
.step amp=1.5 freqs=21500 dts=30
.step amp=2 freqs=21500 dts=30
.step amp=2.5 freqs=21500 dts=30
.step amp=3 freqs=21500 dts=30
.step amp=3.5 freqs=21500 dts=30
.step amp=4 freqs=21500 dts=30
.step amp=4.5 freqs=21500 dts=30
.step amp=5 freqs=21500 dts=30
.step amp=1 freqs=21750 dts=30
.step amp=1.5 freqs=21750 dts=30
.step amp=2 freqs=21750 dts=30
.step amp=2.5 freqs=21750 dts=30
.step amp=3 freqs=21750 dts=30
.step amp=3.5 freqs=21750 dts=30
.step amp=4 freqs=21750 dts=30
.step amp=4.5 freqs=21750 dts=30
.step amp=5 freqs=21750 dts=30
.step amp=1 freqs=22000 dts=30
.step amp=1.5 freqs=22000 dts=30
.step amp=2 freqs=22000 dts=30
.step amp=2.5 freqs=22000 dts=30
.step amp=3 freqs=22000 dts=30
.step amp=3.5 freqs=22000 dts=30
.step amp=4 freqs=22000 dts=30
.step amp=4.5 freqs=22000 dts=30
.step amp=5 freqs=22000 dts=30
.step amp=1 freqs=22250 dts=30
.step amp=1.5 freqs=22250 dts=30
.step amp=2 freqs=22250 dts=30
.step amp=2.5 freqs=22250 dts=30
.step amp=3 freqs=22250 dts=30
.step amp=3.5 freqs=22250 dts=30
.step amp=4 freqs=22250 dts=30
.step amp=4.5 freqs=22250 dts=30
.step amp=5 freqs=22250 dts=30
.step amp=1 freqs=22500 dts=30
.step amp=1.5 freqs=22500 dts=30
.step amp=2 freqs=22500 dts=30
.step amp=2.5 freqs=22500 dts=30
.step amp=3 freqs=22500 dts=30
.step amp=3.5 freqs=22500 dts=30
.step amp=4 freqs=22500 dts=30
.step amp=4.5 freqs=22500 dts=30
.step amp=5 freqs=22500 dts=30
.step amp=1 freqs=22750 dts=30
.step amp=1.5 freqs=22750 dts=30
.step amp=2 freqs=22750 dts=30
.step amp=2.5 freqs=22750 dts=30
.step amp=3 freqs=22750 dts=30
.step amp=3.5 freqs=22750 dts=30
.step amp=4 freqs=22750 dts=30
.step amp=4.5 freqs=22750 dts=30
.step amp=5 freqs=22750 dts=30
.step amp=1 freqs=23000 dts=30
.step amp=1.5 freqs=23000 dts=30
.step amp=2 freqs=23000 dts=30
.step amp=2.5 freqs=23000 dts=30
.step amp=3 freqs=23000 dts=30
.step amp=3.5 freqs=23000 dts=30
.step amp=4 freqs=23000 dts=30
.step amp=4.5 freqs=23000 dts=30
.step amp=5 freqs=23000 dts=30
.step amp=1 freqs=23250 dts=30
.step amp=1.5 freqs=23250 dts=30
.step amp=2 freqs=23250 dts=30
.step amp=2.5 freqs=23250 dts=30
.step amp=3 freqs=23250 dts=30
.step amp=3.5 freqs=23250 dts=30
.step amp=4 freqs=23250 dts=30
.step amp=4.5 freqs=23250 dts=30
.step amp=5 freqs=23250 dts=30
.step amp=1 freqs=23500 dts=30
.step amp=1.5 freqs=23500 dts=30
.step amp=2 freqs=23500 dts=30
.step amp=2.5 freqs=23500 dts=30
.step amp=3 freqs=23500 dts=30
.step amp=3.5 freqs=23500 dts=30
.step amp=4 freqs=23500 dts=30
.step amp=4.5 freqs=23500 dts=30
.step amp=5 freqs=23500 dts=30
.step amp=1 freqs=23750 dts=30
.step amp=1.5 freqs=23750 dts=30
.step amp=2 freqs=23750 dts=30
.step amp=2.5 freqs=23750 dts=30
.step amp=3 freqs=23750 dts=30
.step amp=3.5 freqs=23750 dts=30
.step amp=4 freqs=23750 dts=30
.step amp=4.5 freqs=23750 dts=30
.step amp=5 freqs=23750 dts=30
.step amp=1 freqs=24000 dts=30
.step amp=1.5 freqs=24000 dts=30
.step amp=2 freqs=24000 dts=30
.step amp=2.5 freqs=24000 dts=30
.step amp=3 freqs=24000 dts=30
.step amp=3.5 freqs=24000 dts=30
.step amp=4 freqs=24000 dts=30
.step amp=4.5 freqs=24000 dts=30
.step amp=5 freqs=24000 dts=30
.step amp=1 freqs=24250 dts=30
.step amp=1.5 freqs=24250 dts=30
.step amp=2 freqs=24250 dts=30
.step amp=2.5 freqs=24250 dts=30
.step amp=3 freqs=24250 dts=30
.step amp=3.5 freqs=24250 dts=30
.step amp=4 freqs=24250 dts=30
.step amp=4.5 freqs=24250 dts=30
.step amp=5 freqs=24250 dts=30
.step amp=1 freqs=24500 dts=30
.step amp=1.5 freqs=24500 dts=30
.step amp=2 freqs=24500 dts=30
.step amp=2.5 freqs=24500 dts=30
.step amp=3 freqs=24500 dts=30
.step amp=3.5 freqs=24500 dts=30
.step amp=4 freqs=24500 dts=30
.step amp=4.5 freqs=24500 dts=30
.step amp=5 freqs=24500 dts=30
.step amp=1 freqs=24750 dts=30
.step amp=1.5 freqs=24750 dts=30
.step amp=2 freqs=24750 dts=30
.step amp=2.5 freqs=24750 dts=30
.step amp=3 freqs=24750 dts=30
.step amp=3.5 freqs=24750 dts=30
.step amp=4 freqs=24750 dts=30
.step amp=4.5 freqs=24750 dts=30
.step amp=5 freqs=24750 dts=30
.step amp=1 freqs=25000 dts=30
.step amp=1.5 freqs=25000 dts=30
.step amp=2 freqs=25000 dts=30
.step amp=2.5 freqs=25000 dts=30
.step amp=3 freqs=25000 dts=30
.step amp=3.5 freqs=25000 dts=30
.step amp=4 freqs=25000 dts=30
.step amp=4.5 freqs=25000 dts=30
.step amp=5 freqs=25000 dts=30
.step amp=1 freqs=20000 dts=35
.step amp=1.5 freqs=20000 dts=35
.step amp=2 freqs=20000 dts=35
.step amp=2.5 freqs=20000 dts=35
.step amp=3 freqs=20000 dts=35
.step amp=3.5 freqs=20000 dts=35
.step amp=4 freqs=20000 dts=35
.step amp=4.5 freqs=20000 dts=35
.step amp=5 freqs=20000 dts=35
.step amp=1 freqs=20250 dts=35
.step amp=1.5 freqs=20250 dts=35
.step amp=2 freqs=20250 dts=35
.step amp=2.5 freqs=20250 dts=35
.step amp=3 freqs=20250 dts=35
.step amp=3.5 freqs=20250 dts=35
.step amp=4 freqs=20250 dts=35
.step amp=4.5 freqs=20250 dts=35
.step amp=5 freqs=20250 dts=35
.step amp=1 freqs=20500 dts=35
.step amp=1.5 freqs=20500 dts=35
.step amp=2 freqs=20500 dts=35
.step amp=2.5 freqs=20500 dts=35
.step amp=3 freqs=20500 dts=35
.step amp=3.5 freqs=20500 dts=35
.step amp=4 freqs=20500 dts=35
.step amp=4.5 freqs=20500 dts=35
.step amp=5 freqs=20500 dts=35
.step amp=1 freqs=20750 dts=35
.step amp=1.5 freqs=20750 dts=35
.step amp=2 freqs=20750 dts=35
.step amp=2.5 freqs=20750 dts=35
.step amp=3 freqs=20750 dts=35
.step amp=3.5 freqs=20750 dts=35
.step amp=4 freqs=20750 dts=35
.step amp=4.5 freqs=20750 dts=35
.step amp=5 freqs=20750 dts=35
.step amp=1 freqs=21000 dts=35
.step amp=1.5 freqs=21000 dts=35
.step amp=2 freqs=21000 dts=35
.step amp=2.5 freqs=21000 dts=35
.step amp=3 freqs=21000 dts=35
.step amp=3.5 freqs=21000 dts=35
.step amp=4 freqs=21000 dts=35
.step amp=4.5 freqs=21000 dts=35
.step amp=5 freqs=21000 dts=35
.step amp=1 freqs=21250 dts=35
.step amp=1.5 freqs=21250 dts=35
.step amp=2 freqs=21250 dts=35
.step amp=2.5 freqs=21250 dts=35
.step amp=3 freqs=21250 dts=35
.step amp=3.5 freqs=21250 dts=35
.step amp=4 freqs=21250 dts=35
.step amp=4.5 freqs=21250 dts=35
.step amp=5 freqs=21250 dts=35
.step amp=1 freqs=21500 dts=35
.step amp=1.5 freqs=21500 dts=35
.step amp=2 freqs=21500 dts=35
.step amp=2.5 freqs=21500 dts=35
.step amp=3 freqs=21500 dts=35
.step amp=3.5 freqs=21500 dts=35
.step amp=4 freqs=21500 dts=35
.step amp=4.5 freqs=21500 dts=35
.step amp=5 freqs=21500 dts=35
.step amp=1 freqs=21750 dts=35
.step amp=1.5 freqs=21750 dts=35
.step amp=2 freqs=21750 dts=35
.step amp=2.5 freqs=21750 dts=35
.step amp=3 freqs=21750 dts=35
.step amp=3.5 freqs=21750 dts=35
.step amp=4 freqs=21750 dts=35
.step amp=4.5 freqs=21750 dts=35
.step amp=5 freqs=21750 dts=35
.step amp=1 freqs=22000 dts=35
.step amp=1.5 freqs=22000 dts=35
.step amp=2 freqs=22000 dts=35
.step amp=2.5 freqs=22000 dts=35
.step amp=3 freqs=22000 dts=35
.step amp=3.5 freqs=22000 dts=35
.step amp=4 freqs=22000 dts=35
.step amp=4.5 freqs=22000 dts=35
.step amp=5 freqs=22000 dts=35
.step amp=1 freqs=22250 dts=35
.step amp=1.5 freqs=22250 dts=35
.step amp=2 freqs=22250 dts=35
.step amp=2.5 freqs=22250 dts=35
.step amp=3 freqs=22250 dts=35
.step amp=3.5 freqs=22250 dts=35
.step amp=4 freqs=22250 dts=35
.step amp=4.5 freqs=22250 dts=35
.step amp=5 freqs=22250 dts=35
.step amp=1 freqs=22500 dts=35
.step amp=1.5 freqs=22500 dts=35
.step amp=2 freqs=22500 dts=35
.step amp=2.5 freqs=22500 dts=35
.step amp=3 freqs=22500 dts=35
.step amp=3.5 freqs=22500 dts=35
.step amp=4 freqs=22500 dts=35
.step amp=4.5 freqs=22500 dts=35
.step amp=5 freqs=22500 dts=35
.step amp=1 freqs=22750 dts=35
.step amp=1.5 freqs=22750 dts=35
.step amp=2 freqs=22750 dts=35
.step amp=2.5 freqs=22750 dts=35
.step amp=3 freqs=22750 dts=35
.step amp=3.5 freqs=22750 dts=35
.step amp=4 freqs=22750 dts=35
.step amp=4.5 freqs=22750 dts=35
.step amp=5 freqs=22750 dts=35
.step amp=1 freqs=23000 dts=35
.step amp=1.5 freqs=23000 dts=35
.step amp=2 freqs=23000 dts=35
.step amp=2.5 freqs=23000 dts=35
.step amp=3 freqs=23000 dts=35
.step amp=3.5 freqs=23000 dts=35
.step amp=4 freqs=23000 dts=35
.step amp=4.5 freqs=23000 dts=35
.step amp=5 freqs=23000 dts=35
.step amp=1 freqs=23250 dts=35
.step amp=1.5 freqs=23250 dts=35
.step amp=2 freqs=23250 dts=35
.step amp=2.5 freqs=23250 dts=35
.step amp=3 freqs=23250 dts=35
.step amp=3.5 freqs=23250 dts=35
.step amp=4 freqs=23250 dts=35
.step amp=4.5 freqs=23250 dts=35
.step amp=5 freqs=23250 dts=35
.step amp=1 freqs=23500 dts=35
.step amp=1.5 freqs=23500 dts=35
.step amp=2 freqs=23500 dts=35
.step amp=2.5 freqs=23500 dts=35
.step amp=3 freqs=23500 dts=35
.step amp=3.5 freqs=23500 dts=35
.step amp=4 freqs=23500 dts=35
.step amp=4.5 freqs=23500 dts=35
.step amp=5 freqs=23500 dts=35
.step amp=1 freqs=23750 dts=35
.step amp=1.5 freqs=23750 dts=35
.step amp=2 freqs=23750 dts=35
.step amp=2.5 freqs=23750 dts=35
.step amp=3 freqs=23750 dts=35
.step amp=3.5 freqs=23750 dts=35
.step amp=4 freqs=23750 dts=35
.step amp=4.5 freqs=23750 dts=35
.step amp=5 freqs=23750 dts=35
.step amp=1 freqs=24000 dts=35
.step amp=1.5 freqs=24000 dts=35
.step amp=2 freqs=24000 dts=35
.step amp=2.5 freqs=24000 dts=35
.step amp=3 freqs=24000 dts=35
.step amp=3.5 freqs=24000 dts=35
.step amp=4 freqs=24000 dts=35
.step amp=4.5 freqs=24000 dts=35
.step amp=5 freqs=24000 dts=35
.step amp=1 freqs=24250 dts=35
.step amp=1.5 freqs=24250 dts=35
.step amp=2 freqs=24250 dts=35
.step amp=2.5 freqs=24250 dts=35
.step amp=3 freqs=24250 dts=35
.step amp=3.5 freqs=24250 dts=35
.step amp=4 freqs=24250 dts=35
.step amp=4.5 freqs=24250 dts=35
.step amp=5 freqs=24250 dts=35
.step amp=1 freqs=24500 dts=35
.step amp=1.5 freqs=24500 dts=35
.step amp=2 freqs=24500 dts=35
.step amp=2.5 freqs=24500 dts=35
.step amp=3 freqs=24500 dts=35
.step amp=3.5 freqs=24500 dts=35
.step amp=4 freqs=24500 dts=35
.step amp=4.5 freqs=24500 dts=35
.step amp=5 freqs=24500 dts=35
.step amp=1 freqs=24750 dts=35
.step amp=1.5 freqs=24750 dts=35
.step amp=2 freqs=24750 dts=35
.step amp=2.5 freqs=24750 dts=35
.step amp=3 freqs=24750 dts=35
.step amp=3.5 freqs=24750 dts=35
.step amp=4 freqs=24750 dts=35
.step amp=4.5 freqs=24750 dts=35
.step amp=5 freqs=24750 dts=35
.step amp=1 freqs=25000 dts=35
.step amp=1.5 freqs=25000 dts=35
.step amp=2 freqs=25000 dts=35
.step amp=2.5 freqs=25000 dts=35
.step amp=3 freqs=25000 dts=35
.step amp=3.5 freqs=25000 dts=35
.step amp=4 freqs=25000 dts=35
.step amp=4.5 freqs=25000 dts=35
.step amp=5 freqs=25000 dts=35
.step amp=1 freqs=20000 dts=40
.step amp=1.5 freqs=20000 dts=40
.step amp=2 freqs=20000 dts=40
.step amp=2.5 freqs=20000 dts=40
.step amp=3 freqs=20000 dts=40
.step amp=3.5 freqs=20000 dts=40
.step amp=4 freqs=20000 dts=40
.step amp=4.5 freqs=20000 dts=40
.step amp=5 freqs=20000 dts=40
.step amp=1 freqs=20250 dts=40
.step amp=1.5 freqs=20250 dts=40
.step amp=2 freqs=20250 dts=40
.step amp=2.5 freqs=20250 dts=40
.step amp=3 freqs=20250 dts=40
.step amp=3.5 freqs=20250 dts=40
.step amp=4 freqs=20250 dts=40
.step amp=4.5 freqs=20250 dts=40
.step amp=5 freqs=20250 dts=40
.step amp=1 freqs=20500 dts=40
.step amp=1.5 freqs=20500 dts=40
.step amp=2 freqs=20500 dts=40
.step amp=2.5 freqs=20500 dts=40
.step amp=3 freqs=20500 dts=40
.step amp=3.5 freqs=20500 dts=40
.step amp=4 freqs=20500 dts=40
.step amp=4.5 freqs=20500 dts=40
.step amp=5 freqs=20500 dts=40
.step amp=1 freqs=20750 dts=40
.step amp=1.5 freqs=20750 dts=40
.step amp=2 freqs=20750 dts=40
.step amp=2.5 freqs=20750 dts=40
.step amp=3 freqs=20750 dts=40
.step amp=3.5 freqs=20750 dts=40
.step amp=4 freqs=20750 dts=40
.step amp=4.5 freqs=20750 dts=40
.step amp=5 freqs=20750 dts=40
.step amp=1 freqs=21000 dts=40
.step amp=1.5 freqs=21000 dts=40
.step amp=2 freqs=21000 dts=40
.step amp=2.5 freqs=21000 dts=40
.step amp=3 freqs=21000 dts=40
.step amp=3.5 freqs=21000 dts=40
.step amp=4 freqs=21000 dts=40
.step amp=4.5 freqs=21000 dts=40
.step amp=5 freqs=21000 dts=40
.step amp=1 freqs=21250 dts=40
.step amp=1.5 freqs=21250 dts=40
.step amp=2 freqs=21250 dts=40
.step amp=2.5 freqs=21250 dts=40
.step amp=3 freqs=21250 dts=40
.step amp=3.5 freqs=21250 dts=40
.step amp=4 freqs=21250 dts=40
.step amp=4.5 freqs=21250 dts=40
.step amp=5 freqs=21250 dts=40
.step amp=1 freqs=21500 dts=40
.step amp=1.5 freqs=21500 dts=40
.step amp=2 freqs=21500 dts=40
.step amp=2.5 freqs=21500 dts=40
.step amp=3 freqs=21500 dts=40
.step amp=3.5 freqs=21500 dts=40
.step amp=4 freqs=21500 dts=40
.step amp=4.5 freqs=21500 dts=40
.step amp=5 freqs=21500 dts=40
.step amp=1 freqs=21750 dts=40
.step amp=1.5 freqs=21750 dts=40
.step amp=2 freqs=21750 dts=40
.step amp=2.5 freqs=21750 dts=40
.step amp=3 freqs=21750 dts=40
.step amp=3.5 freqs=21750 dts=40
.step amp=4 freqs=21750 dts=40
.step amp=4.5 freqs=21750 dts=40
.step amp=5 freqs=21750 dts=40
.step amp=1 freqs=22000 dts=40
.step amp=1.5 freqs=22000 dts=40
.step amp=2 freqs=22000 dts=40
.step amp=2.5 freqs=22000 dts=40
.step amp=3 freqs=22000 dts=40
.step amp=3.5 freqs=22000 dts=40
.step amp=4 freqs=22000 dts=40
.step amp=4.5 freqs=22000 dts=40
.step amp=5 freqs=22000 dts=40
.step amp=1 freqs=22250 dts=40
.step amp=1.5 freqs=22250 dts=40
.step amp=2 freqs=22250 dts=40
.step amp=2.5 freqs=22250 dts=40
.step amp=3 freqs=22250 dts=40
.step amp=3.5 freqs=22250 dts=40
.step amp=4 freqs=22250 dts=40
.step amp=4.5 freqs=22250 dts=40
.step amp=5 freqs=22250 dts=40
.step amp=1 freqs=22500 dts=40
.step amp=1.5 freqs=22500 dts=40
.step amp=2 freqs=22500 dts=40
.step amp=2.5 freqs=22500 dts=40
.step amp=3 freqs=22500 dts=40
.step amp=3.5 freqs=22500 dts=40
.step amp=4 freqs=22500 dts=40
.step amp=4.5 freqs=22500 dts=40
.step amp=5 freqs=22500 dts=40
.step amp=1 freqs=22750 dts=40
.step amp=1.5 freqs=22750 dts=40
.step amp=2 freqs=22750 dts=40
.step amp=2.5 freqs=22750 dts=40
.step amp=3 freqs=22750 dts=40
.step amp=3.5 freqs=22750 dts=40
.step amp=4 freqs=22750 dts=40
.step amp=4.5 freqs=22750 dts=40
.step amp=5 freqs=22750 dts=40
.step amp=1 freqs=23000 dts=40
.step amp=1.5 freqs=23000 dts=40
.step amp=2 freqs=23000 dts=40
.step amp=2.5 freqs=23000 dts=40
.step amp=3 freqs=23000 dts=40
.step amp=3.5 freqs=23000 dts=40
.step amp=4 freqs=23000 dts=40
.step amp=4.5 freqs=23000 dts=40
.step amp=5 freqs=23000 dts=40
.step amp=1 freqs=23250 dts=40
.step amp=1.5 freqs=23250 dts=40
.step amp=2 freqs=23250 dts=40
.step amp=2.5 freqs=23250 dts=40
.step amp=3 freqs=23250 dts=40
.step amp=3.5 freqs=23250 dts=40
.step amp=4 freqs=23250 dts=40
.step amp=4.5 freqs=23250 dts=40
.step amp=5 freqs=23250 dts=40
.step amp=1 freqs=23500 dts=40
.step amp=1.5 freqs=23500 dts=40
.step amp=2 freqs=23500 dts=40
.step amp=2.5 freqs=23500 dts=40
.step amp=3 freqs=23500 dts=40
.step amp=3.5 freqs=23500 dts=40
.step amp=4 freqs=23500 dts=40
.step amp=4.5 freqs=23500 dts=40
.step amp=5 freqs=23500 dts=40
.step amp=1 freqs=23750 dts=40
.step amp=1.5 freqs=23750 dts=40
.step amp=2 freqs=23750 dts=40
.step amp=2.5 freqs=23750 dts=40
.step amp=3 freqs=23750 dts=40
.step amp=3.5 freqs=23750 dts=40
.step amp=4 freqs=23750 dts=40
.step amp=4.5 freqs=23750 dts=40
.step amp=5 freqs=23750 dts=40
.step amp=1 freqs=24000 dts=40
.step amp=1.5 freqs=24000 dts=40
.step amp=2 freqs=24000 dts=40
.step amp=2.5 freqs=24000 dts=40
.step amp=3 freqs=24000 dts=40
.step amp=3.5 freqs=24000 dts=40
.step amp=4 freqs=24000 dts=40
.step amp=4.5 freqs=24000 dts=40
.step amp=5 freqs=24000 dts=40
.step amp=1 freqs=24250 dts=40
.step amp=1.5 freqs=24250 dts=40
.step amp=2 freqs=24250 dts=40
.step amp=2.5 freqs=24250 dts=40
.step amp=3 freqs=24250 dts=40
.step amp=3.5 freqs=24250 dts=40
.step amp=4 freqs=24250 dts=40
.step amp=4.5 freqs=24250 dts=40
.step amp=5 freqs=24250 dts=40
.step amp=1 freqs=24500 dts=40
.step amp=1.5 freqs=24500 dts=40
.step amp=2 freqs=24500 dts=40
.step amp=2.5 freqs=24500 dts=40
.step amp=3 freqs=24500 dts=40
.step amp=3.5 freqs=24500 dts=40
.step amp=4 freqs=24500 dts=40
.step amp=4.5 freqs=24500 dts=40
.step amp=5 freqs=24500 dts=40
.step amp=1 freqs=24750 dts=40
.step amp=1.5 freqs=24750 dts=40
.step amp=2 freqs=24750 dts=40
.step amp=2.5 freqs=24750 dts=40
.step amp=3 freqs=24750 dts=40
.step amp=3.5 freqs=24750 dts=40
.step amp=4 freqs=24750 dts=40
.step amp=4.5 freqs=24750 dts=40
.step amp=5 freqs=24750 dts=40
.step amp=1 freqs=25000 dts=40
.step amp=1.5 freqs=25000 dts=40
.step amp=2 freqs=25000 dts=40
.step amp=2.5 freqs=25000 dts=40
.step amp=3 freqs=25000 dts=40
.step amp=3.5 freqs=25000 dts=40
.step amp=4 freqs=25000 dts=40
.step amp=4.5 freqs=25000 dts=40
.step amp=5 freqs=25000 dts=40
.step amp=1 freqs=20000 dts=45
.step amp=1.5 freqs=20000 dts=45
.step amp=2 freqs=20000 dts=45
.step amp=2.5 freqs=20000 dts=45
.step amp=3 freqs=20000 dts=45
.step amp=3.5 freqs=20000 dts=45
.step amp=4 freqs=20000 dts=45
.step amp=4.5 freqs=20000 dts=45
.step amp=5 freqs=20000 dts=45
.step amp=1 freqs=20250 dts=45
.step amp=1.5 freqs=20250 dts=45
.step amp=2 freqs=20250 dts=45
.step amp=2.5 freqs=20250 dts=45
.step amp=3 freqs=20250 dts=45
.step amp=3.5 freqs=20250 dts=45
.step amp=4 freqs=20250 dts=45
.step amp=4.5 freqs=20250 dts=45
.step amp=5 freqs=20250 dts=45
.step amp=1 freqs=20500 dts=45
.step amp=1.5 freqs=20500 dts=45
.step amp=2 freqs=20500 dts=45
.step amp=2.5 freqs=20500 dts=45
.step amp=3 freqs=20500 dts=45
.step amp=3.5 freqs=20500 dts=45
.step amp=4 freqs=20500 dts=45
.step amp=4.5 freqs=20500 dts=45
.step amp=5 freqs=20500 dts=45
.step amp=1 freqs=20750 dts=45
.step amp=1.5 freqs=20750 dts=45
.step amp=2 freqs=20750 dts=45
.step amp=2.5 freqs=20750 dts=45
.step amp=3 freqs=20750 dts=45
.step amp=3.5 freqs=20750 dts=45
.step amp=4 freqs=20750 dts=45
.step amp=4.5 freqs=20750 dts=45
.step amp=5 freqs=20750 dts=45
.step amp=1 freqs=21000 dts=45
.step amp=1.5 freqs=21000 dts=45
.step amp=2 freqs=21000 dts=45
.step amp=2.5 freqs=21000 dts=45
.step amp=3 freqs=21000 dts=45
.step amp=3.5 freqs=21000 dts=45
.step amp=4 freqs=21000 dts=45
.step amp=4.5 freqs=21000 dts=45
.step amp=5 freqs=21000 dts=45
.step amp=1 freqs=21250 dts=45
.step amp=1.5 freqs=21250 dts=45
.step amp=2 freqs=21250 dts=45
.step amp=2.5 freqs=21250 dts=45
.step amp=3 freqs=21250 dts=45
.step amp=3.5 freqs=21250 dts=45
.step amp=4 freqs=21250 dts=45
.step amp=4.5 freqs=21250 dts=45
.step amp=5 freqs=21250 dts=45
.step amp=1 freqs=21500 dts=45
.step amp=1.5 freqs=21500 dts=45
.step amp=2 freqs=21500 dts=45
.step amp=2.5 freqs=21500 dts=45
.step amp=3 freqs=21500 dts=45
.step amp=3.5 freqs=21500 dts=45
.step amp=4 freqs=21500 dts=45
.step amp=4.5 freqs=21500 dts=45
.step amp=5 freqs=21500 dts=45
.step amp=1 freqs=21750 dts=45
.step amp=1.5 freqs=21750 dts=45
.step amp=2 freqs=21750 dts=45
.step amp=2.5 freqs=21750 dts=45
.step amp=3 freqs=21750 dts=45
.step amp=3.5 freqs=21750 dts=45
.step amp=4 freqs=21750 dts=45
.step amp=4.5 freqs=21750 dts=45
.step amp=5 freqs=21750 dts=45
.step amp=1 freqs=22000 dts=45
.step amp=1.5 freqs=22000 dts=45
.step amp=2 freqs=22000 dts=45
.step amp=2.5 freqs=22000 dts=45
.step amp=3 freqs=22000 dts=45
.step amp=3.5 freqs=22000 dts=45
.step amp=4 freqs=22000 dts=45
.step amp=4.5 freqs=22000 dts=45
.step amp=5 freqs=22000 dts=45
.step amp=1 freqs=22250 dts=45
.step amp=1.5 freqs=22250 dts=45
.step amp=2 freqs=22250 dts=45
.step amp=2.5 freqs=22250 dts=45
.step amp=3 freqs=22250 dts=45
.step amp=3.5 freqs=22250 dts=45
.step amp=4 freqs=22250 dts=45
.step amp=4.5 freqs=22250 dts=45
.step amp=5 freqs=22250 dts=45
.step amp=1 freqs=22500 dts=45
.step amp=1.5 freqs=22500 dts=45
.step amp=2 freqs=22500 dts=45
.step amp=2.5 freqs=22500 dts=45
.step amp=3 freqs=22500 dts=45
.step amp=3.5 freqs=22500 dts=45
.step amp=4 freqs=22500 dts=45
.step amp=4.5 freqs=22500 dts=45
.step amp=5 freqs=22500 dts=45
.step amp=1 freqs=22750 dts=45
.step amp=1.5 freqs=22750 dts=45
.step amp=2 freqs=22750 dts=45
.step amp=2.5 freqs=22750 dts=45
.step amp=3 freqs=22750 dts=45
.step amp=3.5 freqs=22750 dts=45
.step amp=4 freqs=22750 dts=45
.step amp=4.5 freqs=22750 dts=45
.step amp=5 freqs=22750 dts=45
.step amp=1 freqs=23000 dts=45
.step amp=1.5 freqs=23000 dts=45
.step amp=2 freqs=23000 dts=45
.step amp=2.5 freqs=23000 dts=45
.step amp=3 freqs=23000 dts=45
.step amp=3.5 freqs=23000 dts=45
.step amp=4 freqs=23000 dts=45
.step amp=4.5 freqs=23000 dts=45
.step amp=5 freqs=23000 dts=45
.step amp=1 freqs=23250 dts=45
.step amp=1.5 freqs=23250 dts=45
.step amp=2 freqs=23250 dts=45
.step amp=2.5 freqs=23250 dts=45
.step amp=3 freqs=23250 dts=45
.step amp=3.5 freqs=23250 dts=45
.step amp=4 freqs=23250 dts=45
.step amp=4.5 freqs=23250 dts=45
.step amp=5 freqs=23250 dts=45
.step amp=1 freqs=23500 dts=45
.step amp=1.5 freqs=23500 dts=45
.step amp=2 freqs=23500 dts=45
.step amp=2.5 freqs=23500 dts=45
.step amp=3 freqs=23500 dts=45
.step amp=3.5 freqs=23500 dts=45
.step amp=4 freqs=23500 dts=45
.step amp=4.5 freqs=23500 dts=45
.step amp=5 freqs=23500 dts=45
.step amp=1 freqs=23750 dts=45
.step amp=1.5 freqs=23750 dts=45
.step amp=2 freqs=23750 dts=45
.step amp=2.5 freqs=23750 dts=45
.step amp=3 freqs=23750 dts=45
.step amp=3.5 freqs=23750 dts=45
.step amp=4 freqs=23750 dts=45
.step amp=4.5 freqs=23750 dts=45
.step amp=5 freqs=23750 dts=45
.step amp=1 freqs=24000 dts=45
.step amp=1.5 freqs=24000 dts=45
.step amp=2 freqs=24000 dts=45
.step amp=2.5 freqs=24000 dts=45
.step amp=3 freqs=24000 dts=45
.step amp=3.5 freqs=24000 dts=45
.step amp=4 freqs=24000 dts=45
.step amp=4.5 freqs=24000 dts=45
.step amp=5 freqs=24000 dts=45
.step amp=1 freqs=24250 dts=45
.step amp=1.5 freqs=24250 dts=45
.step amp=2 freqs=24250 dts=45
.step amp=2.5 freqs=24250 dts=45
.step amp=3 freqs=24250 dts=45
.step amp=3.5 freqs=24250 dts=45
.step amp=4 freqs=24250 dts=45
.step amp=4.5 freqs=24250 dts=45
.step amp=5 freqs=24250 dts=45
.step amp=1 freqs=24500 dts=45
.step amp=1.5 freqs=24500 dts=45
.step amp=2 freqs=24500 dts=45
.step amp=2.5 freqs=24500 dts=45
.step amp=3 freqs=24500 dts=45
.step amp=3.5 freqs=24500 dts=45
.step amp=4 freqs=24500 dts=45
.step amp=4.5 freqs=24500 dts=45
.step amp=5 freqs=24500 dts=45
.step amp=1 freqs=24750 dts=45
.step amp=1.5 freqs=24750 dts=45
.step amp=2 freqs=24750 dts=45
.step amp=2.5 freqs=24750 dts=45
.step amp=3 freqs=24750 dts=45
.step amp=3.5 freqs=24750 dts=45
.step amp=4 freqs=24750 dts=45
.step amp=4.5 freqs=24750 dts=45
.step amp=5 freqs=24750 dts=45
.step amp=1 freqs=25000 dts=45
.step amp=1.5 freqs=25000 dts=45
.step amp=2 freqs=25000 dts=45
.step amp=2.5 freqs=25000 dts=45
.step amp=3 freqs=25000 dts=45
.step amp=3.5 freqs=25000 dts=45
.step amp=4 freqs=25000 dts=45
.step amp=4.5 freqs=25000 dts=45
.step amp=5 freqs=25000 dts=45
.step amp=1 freqs=20000 dts=50
.step amp=1.5 freqs=20000 dts=50
.step amp=2 freqs=20000 dts=50
.step amp=2.5 freqs=20000 dts=50
.step amp=3 freqs=20000 dts=50
.step amp=3.5 freqs=20000 dts=50
.step amp=4 freqs=20000 dts=50
.step amp=4.5 freqs=20000 dts=50
.step amp=5 freqs=20000 dts=50
.step amp=1 freqs=20250 dts=50
.step amp=1.5 freqs=20250 dts=50
.step amp=2 freqs=20250 dts=50
.step amp=2.5 freqs=20250 dts=50
.step amp=3 freqs=20250 dts=50
.step amp=3.5 freqs=20250 dts=50
.step amp=4 freqs=20250 dts=50
.step amp=4.5 freqs=20250 dts=50
.step amp=5 freqs=20250 dts=50
.step amp=1 freqs=20500 dts=50
.step amp=1.5 freqs=20500 dts=50
.step amp=2 freqs=20500 dts=50
.step amp=2.5 freqs=20500 dts=50
.step amp=3 freqs=20500 dts=50
.step amp=3.5 freqs=20500 dts=50
.step amp=4 freqs=20500 dts=50
.step amp=4.5 freqs=20500 dts=50
.step amp=5 freqs=20500 dts=50
.step amp=1 freqs=20750 dts=50
.step amp=1.5 freqs=20750 dts=50
.step amp=2 freqs=20750 dts=50
.step amp=2.5 freqs=20750 dts=50
.step amp=3 freqs=20750 dts=50
.step amp=3.5 freqs=20750 dts=50
.step amp=4 freqs=20750 dts=50
.step amp=4.5 freqs=20750 dts=50
.step amp=5 freqs=20750 dts=50
.step amp=1 freqs=21000 dts=50
.step amp=1.5 freqs=21000 dts=50
.step amp=2 freqs=21000 dts=50
.step amp=2.5 freqs=21000 dts=50
.step amp=3 freqs=21000 dts=50
.step amp=3.5 freqs=21000 dts=50
.step amp=4 freqs=21000 dts=50
.step amp=4.5 freqs=21000 dts=50
.step amp=5 freqs=21000 dts=50
.step amp=1 freqs=21250 dts=50
.step amp=1.5 freqs=21250 dts=50
.step amp=2 freqs=21250 dts=50
.step amp=2.5 freqs=21250 dts=50
.step amp=3 freqs=21250 dts=50
.step amp=3.5 freqs=21250 dts=50
.step amp=4 freqs=21250 dts=50
.step amp=4.5 freqs=21250 dts=50
.step amp=5 freqs=21250 dts=50
.step amp=1 freqs=21500 dts=50
.step amp=1.5 freqs=21500 dts=50
.step amp=2 freqs=21500 dts=50
.step amp=2.5 freqs=21500 dts=50
.step amp=3 freqs=21500 dts=50
.step amp=3.5 freqs=21500 dts=50
.step amp=4 freqs=21500 dts=50
.step amp=4.5 freqs=21500 dts=50
.step amp=5 freqs=21500 dts=50
.step amp=1 freqs=21750 dts=50
.step amp=1.5 freqs=21750 dts=50
.step amp=2 freqs=21750 dts=50
.step amp=2.5 freqs=21750 dts=50
.step amp=3 freqs=21750 dts=50
.step amp=3.5 freqs=21750 dts=50
.step amp=4 freqs=21750 dts=50
.step amp=4.5 freqs=21750 dts=50
.step amp=5 freqs=21750 dts=50
.step amp=1 freqs=22000 dts=50
.step amp=1.5 freqs=22000 dts=50
.step amp=2 freqs=22000 dts=50
.step amp=2.5 freqs=22000 dts=50
.step amp=3 freqs=22000 dts=50
.step amp=3.5 freqs=22000 dts=50
.step amp=4 freqs=22000 dts=50
.step amp=4.5 freqs=22000 dts=50
.step amp=5 freqs=22000 dts=50
.step amp=1 freqs=22250 dts=50
.step amp=1.5 freqs=22250 dts=50
.step amp=2 freqs=22250 dts=50
.step amp=2.5 freqs=22250 dts=50
.step amp=3 freqs=22250 dts=50
.step amp=3.5 freqs=22250 dts=50
.step amp=4 freqs=22250 dts=50
.step amp=4.5 freqs=22250 dts=50
.step amp=5 freqs=22250 dts=50
.step amp=1 freqs=22500 dts=50
.step amp=1.5 freqs=22500 dts=50
.step amp=2 freqs=22500 dts=50
.step amp=2.5 freqs=22500 dts=50
.step amp=3 freqs=22500 dts=50
.step amp=3.5 freqs=22500 dts=50
.step amp=4 freqs=22500 dts=50
.step amp=4.5 freqs=22500 dts=50
.step amp=5 freqs=22500 dts=50
.step amp=1 freqs=22750 dts=50
.step amp=1.5 freqs=22750 dts=50
.step amp=2 freqs=22750 dts=50
.step amp=2.5 freqs=22750 dts=50
.step amp=3 freqs=22750 dts=50
.step amp=3.5 freqs=22750 dts=50
.step amp=4 freqs=22750 dts=50
.step amp=4.5 freqs=22750 dts=50
.step amp=5 freqs=22750 dts=50
.step amp=1 freqs=23000 dts=50
.step amp=1.5 freqs=23000 dts=50
.step amp=2 freqs=23000 dts=50
.step amp=2.5 freqs=23000 dts=50
.step amp=3 freqs=23000 dts=50
.step amp=3.5 freqs=23000 dts=50
.step amp=4 freqs=23000 dts=50
.step amp=4.5 freqs=23000 dts=50
.step amp=5 freqs=23000 dts=50
.step amp=1 freqs=23250 dts=50
.step amp=1.5 freqs=23250 dts=50
.step amp=2 freqs=23250 dts=50
.step amp=2.5 freqs=23250 dts=50
.step amp=3 freqs=23250 dts=50
.step amp=3.5 freqs=23250 dts=50
.step amp=4 freqs=23250 dts=50
.step amp=4.5 freqs=23250 dts=50
.step amp=5 freqs=23250 dts=50
.step amp=1 freqs=23500 dts=50
.step amp=1.5 freqs=23500 dts=50
.step amp=2 freqs=23500 dts=50
.step amp=2.5 freqs=23500 dts=50
.step amp=3 freqs=23500 dts=50
.step amp=3.5 freqs=23500 dts=50
.step amp=4 freqs=23500 dts=50
.step amp=4.5 freqs=23500 dts=50
.step amp=5 freqs=23500 dts=50
.step amp=1 freqs=23750 dts=50
.step amp=1.5 freqs=23750 dts=50
.step amp=2 freqs=23750 dts=50
.step amp=2.5 freqs=23750 dts=50
.step amp=3 freqs=23750 dts=50
.step amp=3.5 freqs=23750 dts=50
.step amp=4 freqs=23750 dts=50
.step amp=4.5 freqs=23750 dts=50
.step amp=5 freqs=23750 dts=50
.step amp=1 freqs=24000 dts=50
.step amp=1.5 freqs=24000 dts=50
.step amp=2 freqs=24000 dts=50
.step amp=2.5 freqs=24000 dts=50
.step amp=3 freqs=24000 dts=50
.step amp=3.5 freqs=24000 dts=50
.step amp=4 freqs=24000 dts=50
.step amp=4.5 freqs=24000 dts=50
.step amp=5 freqs=24000 dts=50
.step amp=1 freqs=24250 dts=50
.step amp=1.5 freqs=24250 dts=50
.step amp=2 freqs=24250 dts=50
.step amp=2.5 freqs=24250 dts=50
.step amp=3 freqs=24250 dts=50
.step amp=3.5 freqs=24250 dts=50
.step amp=4 freqs=24250 dts=50
.step amp=4.5 freqs=24250 dts=50
.step amp=5 freqs=24250 dts=50
.step amp=1 freqs=24500 dts=50
.step amp=1.5 freqs=24500 dts=50
.step amp=2 freqs=24500 dts=50
.step amp=2.5 freqs=24500 dts=50
.step amp=3 freqs=24500 dts=50
.step amp=3.5 freqs=24500 dts=50
.step amp=4 freqs=24500 dts=50
.step amp=4.5 freqs=24500 dts=50
.step amp=5 freqs=24500 dts=50
.step amp=1 freqs=24750 dts=50
.step amp=1.5 freqs=24750 dts=50
.step amp=2 freqs=24750 dts=50
.step amp=2.5 freqs=24750 dts=50
.step amp=3 freqs=24750 dts=50
.step amp=3.5 freqs=24750 dts=50
.step amp=4 freqs=24750 dts=50
.step amp=4.5 freqs=24750 dts=50
.step amp=5 freqs=24750 dts=50
.step amp=1 freqs=25000 dts=50
.step amp=1.5 freqs=25000 dts=50
.step amp=2 freqs=25000 dts=50
.step amp=2.5 freqs=25000 dts=50
.step amp=3 freqs=25000 dts=50
.step amp=3.5 freqs=25000 dts=50
.step amp=4 freqs=25000 dts=50
.step amp=4.5 freqs=25000 dts=50
.step amp=5 freqs=25000 dts=50

Date: Sat Apr 04 21:26:10 2020
Total elapsed time: 6530.831 seconds.

tnom = 27
temp = 27
method = modified trap
totiter = 91632
traniter = 91632
tranpoints = 38791
accept = 33851
rejected = 4711
matrix size = 368
fillins = 897
solver = Normal
Thread vector: 24.8/17.2[2] 8.1/5.7[2] 7.0/5.6[2] 1.8/3.0[1]  2592/500
Matrix Compiler1: 72.01 KB object code size  14.5/7.4/[3.3]
Matrix Compiler2: 47.39 KB object code size  5.1/5.6/[2.1]

